
Version,
  24.2;                                   !- Version Identifier

Timestep,
  1;                                      !- Number of Timesteps per Hour

Building,
  Building 1,                             !- Name
  ,                                       !- North Axis {deg}
  Suburbs,                                !- Terrain
  ,                                       !- Loads Convergence Tolerance Value {W}
  ,                                       !- Temperature Convergence Tolerance Value {deltaC}
  ,                                       !- Solar Distribution
  ,                                       !- Maximum Number of Warmup Days
  ;                                       !- Minimum Number of Warmup Days

Zone,
  attic - vented,                         !- Name
  ,                                       !- Direction of Relative North {deg}
  0,                                      !- X Origin {m}
  0,                                      !- Y Origin {m}
  0,                                      !- Z Origin {m}
  ,                                       !- Type
  1,                                      !- Multiplier
  ,                                       !- Ceiling Height {m}
  16.9828793421775,                       !- Volume {m3}
  ,                                       !- Floor Area {m2}
  ,                                       !- Zone Inside Convection Algorithm
  ,                                       !- Zone Outside Convection Algorithm
  Yes;                                    !- Part of Total Floor Area

Space,
  attic - vented 1,                       !- Name
  attic - vented,                         !- Zone Name
  ,                                       !- Ceiling Height {m}
  16.9828793421775,                       !- Volume {m3}
  ;                                       !- Floor Area {m2}

BuildingSurface:Detailed,
  Roof1:135,                              !- Name
  Roof,                                   !- Surface Type
  Roof1 construction,                     !- Construction Name
  attic - vented,                         !- Zone Name
  attic - vented 1,                       !- Space Name
  Outdoors,                               !- Outside Boundary Condition
  ,                                       !- Outside Boundary Condition Object
  SunExposed,                             !- Sun Exposure
  WindExposed,                            !- Wind Exposure
  ,                                       !- View Factor to Ground
  ,                                       !- Number of Vertices
  8.88000007208396, -32.4424637123043, 5.19677904, !- X,Y,Z Vertex 1 {m}
  4.51669154100416, -28.0791551812245, 7.76788324894633, !- X,Y,Z Vertex 2 {m}
  3.33496214717006, -29.2608845750586, 7.76788324894633, !- X,Y,Z Vertex 3 {m}
  7.69827067824986, -33.6241931061384, 5.19677904; !- X,Y,Z Vertex 4 {m}

BuildingSurface:Detailed,
  Roof1:225,                              !- Name
  Roof,                                   !- Surface Type
  Roof1 construction,                     !- Construction Name
  attic - vented,                         !- Zone Name
  attic - vented 1,                       !- Space Name
  Outdoors,                               !- Outside Boundary Condition
  ,                                       !- Outside Boundary Condition Object
  SunExposed,                             !- Sun Exposure
  WindExposed,                            !- Wind Exposure
  ,                                       !- View Factor to Ground
  ,                                       !- Number of Vertices
  -32.4424637123043, -8.88000007208396, 5.19677904, !- X,Y,Z Vertex 1 {m}
  -28.0791551812245, -4.51669154100416, 7.76788324894633, !- X,Y,Z Vertex 2 {m}
  -29.2608845750586, -3.33496214717006, 7.76788324894633, !- X,Y,Z Vertex 3 {m}
  -33.6241931061384, -7.69827067824986, 5.19677904; !- X,Y,Z Vertex 4 {m}

BuildingSurface:Detailed,
  Roof1:315,                              !- Name
  Roof,                                   !- Surface Type
  Roof1 construction,                     !- Construction Name
  attic - vented,                         !- Zone Name
  attic - vented 1,                       !- Space Name
  Outdoors,                               !- Outside Boundary Condition
  ,                                       !- Outside Boundary Condition Object
  SunExposed,                             !- Sun Exposure
  WindExposed,                            !- Wind Exposure
  ,                                       !- View Factor to Ground
  ,                                       !- Number of Vertices
  -8.88000007208396, 32.4424637123042, 5.19677904, !- X,Y,Z Vertex 1 {m}
  -4.51669154100416, 28.0791551812245, 7.76788324894633, !- X,Y,Z Vertex 2 {m}
  -3.33496214717006, 29.2608845750586, 7.76788324894633, !- X,Y,Z Vertex 3 {m}
  -7.69827067824986, 33.6241931061383, 5.19677904; !- X,Y,Z Vertex 4 {m}

BuildingSurface:Detailed,
  Roof1:45,                               !- Name
  Roof,                                   !- Surface Type
  Roof1 construction,                     !- Construction Name
  attic - vented,                         !- Zone Name
  attic - vented 1,                       !- Space Name
  Outdoors,                               !- Outside Boundary Condition
  ,                                       !- Outside Boundary Condition Object
  SunExposed,                             !- Sun Exposure
  WindExposed,                            !- Wind Exposure
  ,                                       !- View Factor to Ground
  ,                                       !- Number of Vertices
  14.7591252792916, 26.5633385050967, 5.19677904, !- X,Y,Z Vertex 1 {m}
  10.3958167482118, 22.2000299740169, 7.76788324894633, !- X,Y,Z Vertex 2 {m}
  11.5775461420459, 21.0183005801828, 7.76788324894633, !- X,Y,Z Vertex 3 {m}
  15.9408546731257, 25.3816091112626, 5.19677904; !- X,Y,Z Vertex 4 {m}

BuildingSurface:Detailed,
  Surface 1 Reversed,                     !- Name
  Floor,                                  !- Surface Type
  Floor1 construction Reversed,           !- Construction Name
  attic - vented,                         !- Zone Name
  attic - vented 1,                       !- Space Name
  Surface,                                !- Outside Boundary Condition
  Floor1,                                 !- Outside Boundary Condition Object
  NoSun,                                  !- Sun Exposure
  NoWind,                                 !- Wind Exposure
  ,                                       !- View Factor to Ground
  ,                                       !- Number of Vertices
  -4.5414755071646, -4.44089209850063e-16, 5.19677904, !- X,Y,Z Vertex 1 {m}
  -4.44089209850063e-16, 4.5414755071646, 5.19677904, !- X,Y,Z Vertex 2 {m}
  4.5414755071646, 4.44089209850063e-16, 5.19677904, !- X,Y,Z Vertex 3 {m}
  4.44089209850063e-16, -4.5414755071646, 5.19677904; !- X,Y,Z Vertex 4 {m}

BuildingSurface:Detailed,
  Wall3:135,                              !- Name
  Wall,                                   !- Surface Type
  Wall3 construction,                     !- Construction Name
  attic - vented,                         !- Zone Name
  attic - vented 1,                       !- Space Name
  Outdoors,                               !- Outside Boundary Condition
  ,                                       !- Outside Boundary Condition Object
  SunExposed,                             !- Sun Exposure
  WindExposed,                            !- Wind Exposure
  ,                                       !- View Factor to Ground
  ,                                       !- Number of Vertices
  19.5421742841013, -21.7802895002869, 0.31997904, !- X,Y,Z Vertex 1 {m}
  19.5421742841013, -21.7802895002869, 5.19677904, !- X,Y,Z Vertex 2 {m}
  19.3020324404245, -22.0204313439637, 5.19677904, !- X,Y,Z Vertex 3 {m}
  19.3020324404245, -22.0204313439637, 0.31997904; !- X,Y,Z Vertex 4 {m}

BuildingSurface:Detailed,
  Wall3:225,                              !- Name
  Wall,                                   !- Surface Type
  Wall3 construction,                     !- Construction Name
  attic - vented,                         !- Zone Name
  attic - vented 1,                       !- Space Name
  Outdoors,                               !- Outside Boundary Condition
  ,                                       !- Outside Boundary Condition Object
  SunExposed,                             !- Sun Exposure
  WindExposed,                            !- Wind Exposure
  ,                                       !- View Factor to Ground
  ,                                       !- Number of Vertices
  -20.487132618853, -20.8353311655352, 0.31997904, !- X,Y,Z Vertex 1 {m}
  -20.487132618853, -20.8353311655352, 5.19677904, !- X,Y,Z Vertex 2 {m}
  -20.7272744625298, -20.5951893218584, 5.19677904, !- X,Y,Z Vertex 3 {m}
  -20.7272744625298, -20.5951893218584, 0.31997904; !- X,Y,Z Vertex 4 {m}

BuildingSurface:Detailed,
  Wall3:315,                              !- Name
  Wall,                                   !- Surface Type
  Wall3 construction,                     !- Construction Name
  attic - vented,                         !- Zone Name
  attic - vented 1,                       !- Space Name
  Outdoors,                               !- Outside Boundary Condition
  ,                                       !- Outside Boundary Condition Object
  SunExposed,                             !- Sun Exposure
  WindExposed,                            !- Wind Exposure
  ,                                       !- View Factor to Ground
  ,                                       !- Number of Vertices
  -19.1007767352385, 22.2216870491497, 0.31997904, !- X,Y,Z Vertex 1 {m}
  -19.1007767352385, 22.2216870491497, 5.19677904, !- X,Y,Z Vertex 2 {m}
  -18.8606348915617, 22.4618288928265, 5.19677904, !- X,Y,Z Vertex 3 {m}
  -18.8606348915617, 22.4618288928265, 0.31997904; !- X,Y,Z Vertex 4 {m}

BuildingSurface:Detailed,
  Wall3:45,                               !- Name
  Wall,                                   !- Surface Type
  Wall3 construction,                     !- Construction Name
  attic - vented,                         !- Zone Name
  attic - vented 1,                       !- Space Name
  Outdoors,                               !- Outside Boundary Condition
  ,                                       !- Outside Boundary Condition Object
  SunExposed,                             !- Sun Exposure
  WindExposed,                            !- Wind Exposure
  ,                                       !- View Factor to Ground
  ,                                       !- Number of Vertices
  0.656923695768416, 40.6655400886198, 0.31997904, !- X,Y,Z Vertex 1 {m}
  0.656923695768416, 40.6655400886198, 5.19677904, !- X,Y,Z Vertex 2 {m}
  0.897065539445215, 40.425398244943, 5.19677904, !- X,Y,Z Vertex 3 {m}
  0.897065539445215, 40.425398244943, 0.31997904; !- X,Y,Z Vertex 4 {m}

ZoneInfiltration:EffectiveLeakageArea,
  infil attic - vented 1,                 !- Name
  attic - vented 1,                       !- Zone or Space Name
  Always On Discrete,                     !- Schedule Name
  1499.99998415825,                       !- Effective Air Leakage Area {cm2}
  0.000517913951115203,                   !- Stack Coefficient
  1.53761959400211e-05;                   !- Wind Coefficient

ZoneMixing,
  whole house fan mix,                    !- Name
  attic - vented,                         !- Zone or Space Name
  Always On Continuous,                   !- Schedule Name
  Flow/Zone,                              !- Design Flow Rate Calculation Method
  0,                                      !- Design Flow Rate {m3/s}
  ,                                       !- Flow Rate per Floor Area {m3/s-m2}
  ,                                       !- Flow Rate per Person {m3/s-person}
  ,                                       !- Air Changes per Hour {1/hr}
  conditioned space;                      !- Source Zone or Space Name

Schedule:Constant,
  Always On Continuous,                   !- Name
  Fractional 1,                           !- Schedule Type Limits Name
  1;                                      !- Hourly Value

Zone,
  conditioned space,                      !- Name
  ,                                       !- Direction of Relative North {deg}
  0,                                      !- X Origin {m}
  0,                                      !- Y Origin {m}
  0,                                      !- Z Origin {m}
  ,                                       !- Type
  1,                                      !- Multiplier
  ,                                       !- Ceiling Height {m}
  240.300158201303,                       !- Volume {m3}
  ,                                       !- Floor Area {m2}
  ,                                       !- Zone Inside Convection Algorithm
  ,                                       !- Zone Outside Convection Algorithm
  Yes;                                    !- Part of Total Floor Area

Space,
  conditioned space 1,                    !- Name
  conditioned space,                      !- Zone Name
  ,                                       !- Ceiling Height {m}
  240.300158201303,                       !- Volume {m3}
  ;                                       !- Floor Area {m2}

Shading:Zone:Detailed,
  Window11 overhangs,                     !- Name
  Roof2:45,                               !- Base Surface Name
  ,                                       !- Transmittance Schedule Name
  ,                                       !- Number of Vertices
  8.40222479006753, 32.9202389943207, 3.92881104, !- X,Y,Z Vertex 1 {m}
  13.1481105449301, 28.1743532394581, 3.92881104, !- X,Y,Z Vertex 2 {m}
  13.3097551551094, 28.3359978496373, 3.92881104, !- X,Y,Z Vertex 3 {m}
  8.56386940024673, 33.0818836045, 3.92881104; !- X,Y,Z Vertex 4 {m}

Shading:Zone:Detailed,
  Window12 overhangs,                     !- Name
  Wall1:135,                              !- Base Surface Name
  ,                                       !- Transmittance Schedule Name
  ,                                       !- Number of Vertices
  13.5210823650474, -27.8013814193408, 4.89502704, !- X,Y,Z Vertex 1 {m}
  7.91309202256222, -33.409371761826, 4.89502704, !- X,Y,Z Vertex 2 {m}
  8.12430764652971, -33.6205873857936, 4.89502704, !- X,Y,Z Vertex 3 {m}
  13.732297989015, -28.0125970433083, 4.89502704; !- X,Y,Z Vertex 4 {m}

Shading:Zone:Detailed,
  Window13 overhangs,                     !- Name
  Wall1:135,                              !- Base Surface Name
  ,                                       !- Transmittance Schedule Name
  ,                                       !- Number of Vertices
  14.8245845015329, -26.4978792828553, 5.50462704, !- X,Y,Z Vertex 1 {m}
  9.00106801214191, -32.3213957722463, 5.50462704, !- X,Y,Z Vertex 2 {m}
  9.21228363610951, -32.5326113962138, 5.50462704, !- X,Y,Z Vertex 3 {m}
  15.0358001255004, -26.7090949068229, 5.50462704; !- X,Y,Z Vertex 4 {m}

Shading:Zone:Detailed,
  Window14 overhangs,                     !- Name
  Wall1:45,                               !- Base Surface Name
  ,                                       !- Transmittance Schedule Name
  ,                                       !- Number of Vertices
  6.45214421286514, 34.8703195715231, 5.19982704, !- X,Y,Z Vertex 1 {m}
  12.0601345553503, 29.2623292290379, 5.19982704, !- X,Y,Z Vertex 2 {m}
  12.2217791655296, 29.4239738392171, 5.19982704, !- X,Y,Z Vertex 3 {m}
  6.61378882304434, 35.0319641817024, 5.19982704; !- X,Y,Z Vertex 4 {m}

Shading:Zone:Detailed,
  Window16 overhangs,                     !- Name
  Wall1:315,                              !- Base Surface Name
  ,                                       !- Transmittance Schedule Name
  ,                                       !- Number of Vertices
  -14.3831869526701, 26.9392768317181, 5.80942704, !- X,Y,Z Vertex 1 {m}
  -7.91309202256224, 33.409371761826, 5.80942704, !- X,Y,Z Vertex 2 {m}
  -8.12430764652974, 33.6205873857936, 5.80942704, !- X,Y,Z Vertex 3 {m}
  -14.5944025766376, 27.1504924556857, 5.80942704; !- X,Y,Z Vertex 4 {m}

Shading:Zone:Detailed,
  Window18 overhangs,                     !- Name
  Wall1:225,                              !- Base Surface Name
  ,                                       !- Transmittance Schedule Name
  ,                                       !- Number of Vertices
  -25.4202485483271, -15.9022152360611, 5.19982704, !- X,Y,Z Vertex 1 {m}
  -30.3816604500953, -10.9408033342929, 5.19982704, !- X,Y,Z Vertex 2 {m}
  -30.5433050602746, -11.1024479444721, 5.19982704, !- X,Y,Z Vertex 3 {m}
  -25.5818931585063, -16.0638598462404, 5.19982704; !- X,Y,Z Vertex 4 {m}

Shading:Zone:Detailed,
  Window19 overhangs,                     !- Name
  Wall1:225,                              !- Base Surface Name
  ,                                       !- Transmittance Schedule Name
  ,                                       !- Number of Vertices
  -23.6856941180303, -17.6367696663579, 5.40404304, !- X,Y,Z Vertex 1 {m}
  -29.0781583136099, -12.2443054707783, 5.40404304, !- X,Y,Z Vertex 2 {m}
  -29.2398029237892, -12.4059500809575, 5.40404304, !- X,Y,Z Vertex 3 {m}
  -23.8473387282095, -17.7984142765372, 5.40404304; !- X,Y,Z Vertex 4 {m}

Shading:Zone:Detailed,
  Window4 overhangs,                      !- Name
  surface Window13,                       !- Base Surface Name
  ,                                       !- Transmittance Schedule Name
  ,                                       !- Number of Vertices
  14.8306192336462, -26.491844550742, 2.45053104, !- X,Y,Z Vertex 1 {m}
  12.2486159937164, -29.0738477906718, 2.45053104, !- X,Y,Z Vertex 2 {m}
  12.4598316176839, -29.2850634146393, 2.45053104, !- X,Y,Z Vertex 3 {m}
  15.0418348576138, -26.7030601747095, 2.45053104; !- X,Y,Z Vertex 4 {m}

Shading:Zone:Detailed,
  Window6 overhangs,                      !- Name
  surface Window16,                       !- Base Surface Name
  ,                                       !- Transmittance Schedule Name
  ,                                       !- Number of Vertices
  -14.3892216847834, 26.9332420996048, 2.45053104, !- X,Y,Z Vertex 1 {m}
  -11.8072184448536, 29.5152453395346, 2.45053104, !- X,Y,Z Vertex 2 {m}
  -12.0184340688211, 29.7264609635021, 2.45053104, !- X,Y,Z Vertex 3 {m}
  -14.600437308751, 27.1444577235723, 2.45053104; !- X,Y,Z Vertex 4 {m}

BuildingSurface:Detailed,
  Floor1,                                 !- Name
  Ceiling,                                !- Surface Type
  Floor1 construction,                    !- Construction Name
  conditioned space,                      !- Zone Name
  conditioned space 1,                    !- Space Name
  Surface,                                !- Outside Boundary Condition
  Surface 1 Reversed,                     !- Outside Boundary Condition Object
  NoSun,                                  !- Sun Exposure
  NoWind,                                 !- Wind Exposure
  ,                                       !- View Factor to Ground
  ,                                       !- Number of Vertices
  4.44089209850063e-16, -4.5414755071646, 5.19677904, !- X,Y,Z Vertex 1 {m}
  4.5414755071646, 4.44089209850063e-16, 5.19677904, !- X,Y,Z Vertex 2 {m}
  -4.44089209850063e-16, 4.5414755071646, 5.19677904, !- X,Y,Z Vertex 3 {m}
  -4.5414755071646, -4.44089209850063e-16, 5.19677904; !- X,Y,Z Vertex 4 {m}

BuildingSurface:Detailed,
  Floor2,                                 !- Name
  Floor,                                  !- Surface Type
  Floor2 construction,                    !- Construction Name
  conditioned space,                      !- Zone Name
  conditioned space 1,                    !- Space Name
  Adiabatic,                              !- Outside Boundary Condition
  ,                                       !- Outside Boundary Condition Object
  NoSun,                                  !- Sun Exposure
  NoWind,                                 !- Wind Exposure
  ,                                       !- View Factor to Ground
  ,                                       !- Number of Vertices
  -4.22906622472999, 0, 0.31997904,       !- X,Y,Z Vertex 1 {m}
  -4.44089209850063e-16, 4.22906622472999, 0.31997904, !- X,Y,Z Vertex 2 {m}
  4.22906622472999, 0, 0.31997904,        !- X,Y,Z Vertex 3 {m}
  4.44089209850063e-16, -4.22906622472999, 0.31997904; !- X,Y,Z Vertex 4 {m}

BuildingSurface:Detailed,
  FoundationWall1,                        !- Name
  Wall,                                   !- Surface Type
  FoundationWall1 construction,           !- Construction Name
  conditioned space,                      !- Zone Name
  conditioned space 1,                    !- Space Name
  Foundation,                             !- Outside Boundary Condition
  Foundation Kiva 1,                      !- Outside Boundary Condition Object
  NoSun,                                  !- Sun Exposure
  NoWind,                                 !- Wind Exposure
  ,                                       !- View Factor to Ground
  ,                                       !- Number of Vertices
  24.296049047144, 17.0264147372442, -0.44000928, !- X,Y,Z Vertex 1 {m}
  24.296049047144, 17.0264147372442, 0.31997904, !- X,Y,Z Vertex 2 {m}
  41.3224637843882, 4.44089209850063e-14, 0.31997904, !- X,Y,Z Vertex 3 {m}
  41.3224637843882, 4.44089209850063e-14, -0.44000928; !- X,Y,Z Vertex 4 {m}

BuildingSurface:Detailed,
  inferred conditioned ceiling,           !- Name
  Ceiling,                                !- Surface Type
  AdiabaticFloorConstruction,             !- Construction Name
  conditioned space,                      !- Zone Name
  conditioned space 1,                    !- Space Name
  Adiabatic,                              !- Outside Boundary Condition
  ,                                       !- Outside Boundary Condition Object
  NoSun,                                  !- Sun Exposure
  NoWind,                                 !- Wind Exposure
  ,                                       !- View Factor to Ground
  ,                                       !- Number of Vertices
  8.88178419700125e-16, -6.59545225281785, 2.75837904, !- X,Y,Z Vertex 1 {m}
  6.59545225281785, 0, 2.75837904,        !- X,Y,Z Vertex 2 {m}
  -8.88178419700125e-16, 6.59545225281785, 2.75837904, !- X,Y,Z Vertex 3 {m}
  -6.59545225281785, 0, 2.75837904;       !- X,Y,Z Vertex 4 {m}

BuildingSurface:Detailed,
  inferred conditioned floor,             !- Name
  Floor,                                  !- Surface Type
  AdiabaticFloorConstruction,             !- Construction Name
  conditioned space,                      !- Zone Name
  conditioned space 1,                    !- Space Name
  Adiabatic,                              !- Outside Boundary Condition
  ,                                       !- Outside Boundary Condition Object
  NoSun,                                  !- Sun Exposure
  NoWind,                                 !- Wind Exposure
  ,                                       !- View Factor to Ground
  ,                                       !- Number of Vertices
  -6.59545225281785, 0, 2.75837904,       !- X,Y,Z Vertex 1 {m}
  -8.88178419700125e-16, 6.59545225281785, 2.75837904, !- X,Y,Z Vertex 2 {m}
  6.59545225281785, 0, 2.75837904,        !- X,Y,Z Vertex 3 {m}
  8.88178419700125e-16, -6.59545225281785, 2.75837904; !- X,Y,Z Vertex 4 {m}

BuildingSurface:Detailed,
  RimJoist1:135,                          !- Name
  Wall,                                   !- Surface Type
  RimJoist1 construction,                 !- Construction Name
  conditioned space,                      !- Zone Name
  conditioned space 1,                    !- Space Name
  Outdoors,                               !- Outside Boundary Condition
  ,                                       !- Outside Boundary Condition Object
  SunExposed,                             !- Sun Exposure
  WindExposed,                            !- Wind Exposure
  ,                                       !- View Factor to Ground
  ,                                       !- Number of Vertices
  2.76627809553418, -38.556185688854, 0.31997904, !- X,Y,Z Vertex 1 {m}
  2.76627809553418, -38.556185688854, 0.62477904, !- X,Y,Z Vertex 2 {m}
  -2.48689957516035e-14, -41.3224637843882, 0.62477904, !- X,Y,Z Vertex 3 {m}
  -2.48689957516035e-14, -41.3224637843882, 0.31997904; !- X,Y,Z Vertex 4 {m}

BuildingSurface:Detailed,
  RimJoist1:225,                          !- Name
  Wall,                                   !- Surface Type
  RimJoist1 construction,                 !- Construction Name
  conditioned space,                      !- Zone Name
  conditioned space 1,                    !- Space Name
  Outdoors,                               !- Outside Boundary Condition
  ,                                       !- Outside Boundary Condition Object
  SunExposed,                             !- Sun Exposure
  WindExposed,                            !- Wind Exposure
  ,                                       !- View Factor to Ground
  ,                                       !- Number of Vertices
  -38.556185688854, -2.76627809553418, 0.31997904, !- X,Y,Z Vertex 1 {m}
  -38.556185688854, -2.76627809553418, 0.62477904, !- X,Y,Z Vertex 2 {m}
  -41.3224637843882, 1.77635683940025e-14, 0.62477904, !- X,Y,Z Vertex 3 {m}
  -41.3224637843882, 1.77635683940025e-14, 0.31997904; !- X,Y,Z Vertex 4 {m}

BuildingSurface:Detailed,
  RimJoist1:315,                          !- Name
  Wall,                                   !- Surface Type
  RimJoist1 construction,                 !- Construction Name
  conditioned space,                      !- Zone Name
  conditioned space 1,                    !- Space Name
  Outdoors,                               !- Outside Boundary Condition
  ,                                       !- Outside Boundary Condition Object
  SunExposed,                             !- Sun Exposure
  WindExposed,                            !- Wind Exposure
  ,                                       !- View Factor to Ground
  ,                                       !- Number of Vertices
  -2.76627809553418, 38.556185688854, 0.31997904, !- X,Y,Z Vertex 1 {m}
  -2.76627809553418, 38.556185688854, 0.62477904, !- X,Y,Z Vertex 2 {m}
  1.77635683940025e-14, 41.3224637843882, 0.62477904, !- X,Y,Z Vertex 3 {m}
  1.77635683940025e-14, 41.3224637843882, 0.31997904; !- X,Y,Z Vertex 4 {m}

BuildingSurface:Detailed,
  RimJoist1:45,                           !- Name
  Wall,                                   !- Surface Type
  RimJoist1 construction,                 !- Construction Name
  conditioned space,                      !- Zone Name
  conditioned space 1,                    !- Space Name
  Outdoors,                               !- Outside Boundary Condition
  ,                                       !- Outside Boundary Condition Object
  SunExposed,                             !- Sun Exposure
  WindExposed,                            !- Wind Exposure
  ,                                       !- View Factor to Ground
  ,                                       !- Number of Vertices
  20.8728472558413, 20.4496165285469, 0.31997904, !- X,Y,Z Vertex 1 {m}
  20.8728472558413, 20.4496165285469, 0.62477904, !- X,Y,Z Vertex 2 {m}
  23.6391253513755, 17.6833384330127, 0.62477904, !- X,Y,Z Vertex 3 {m}
  23.6391253513755, 17.6833384330127, 0.31997904; !- X,Y,Z Vertex 4 {m}

BuildingSurface:Detailed,
  RimJoist2:135,                          !- Name
  Wall,                                   !- Surface Type
  RimJoist2 construction,                 !- Construction Name
  conditioned space,                      !- Zone Name
  conditioned space 1,                    !- Space Name
  Outdoors,                               !- Outside Boundary Condition
  ,                                       !- Outside Boundary Condition Object
  SunExposed,                             !- Sun Exposure
  WindExposed,                            !- Wind Exposure
  ,                                       !- View Factor to Ground
  ,                                       !- Number of Vertices
  7.04134698248138, -34.2811168019068, 0.31997904, !- X,Y,Z Vertex 1 {m}
  7.04134698248138, -34.2811168019068, 0.62477904, !- X,Y,Z Vertex 2 {m}
  3.42320179130258, -37.8992619930856, 0.62477904, !- X,Y,Z Vertex 3 {m}
  3.42320179130258, -37.8992619930856, 0.31997904; !- X,Y,Z Vertex 4 {m}

BuildingSurface:Detailed,
  RimJoist2:225,                          !- Name
  Wall,                                   !- Surface Type
  RimJoist2 construction,                 !- Construction Name
  conditioned space,                      !- Zone Name
  conditioned space 1,                    !- Space Name
  Outdoors,                               !- Outside Boundary Condition
  ,                                       !- Outside Boundary Condition Object
  SunExposed,                             !- Sun Exposure
  WindExposed,                            !- Wind Exposure
  ,                                       !- View Factor to Ground
  ,                                       !- Number of Vertices
  -34.2811168019068, -7.04134698248138, 0.31997904, !- X,Y,Z Vertex 1 {m}
  -34.2811168019068, -7.04134698248138, 0.62477904, !- X,Y,Z Vertex 2 {m}
  -37.8992619930856, -3.42320179130258, 0.62477904, !- X,Y,Z Vertex 3 {m}
  -37.8992619930856, -3.42320179130258, 0.31997904; !- X,Y,Z Vertex 4 {m}

BuildingSurface:Detailed,
  RimJoist2:315,                          !- Name
  Wall,                                   !- Surface Type
  RimJoist2 construction,                 !- Construction Name
  conditioned space,                      !- Zone Name
  conditioned space 1,                    !- Space Name
  Outdoors,                               !- Outside Boundary Condition
  ,                                       !- Outside Boundary Condition Object
  SunExposed,                             !- Sun Exposure
  WindExposed,                            !- Wind Exposure