
Version,
  24.2;                                   !- Version Identifier

Timestep,
  1;                                      !- Number of Timesteps per Hour

Building,
  Building 1,                             !- Name
  ,                                       !- North Axis {deg}
  Suburbs,                                !- Terrain
  ,                                       !- Loads Convergence Tolerance Value {W}
  ,                                       !- Temperature Convergence Tolerance Value {deltaC}
  ,                                       !- Solar Distribution
  ,                                       !- Maximum Number of Warmup Days
  ;                                       !- Minimum Number of Warmup Days

Zone,
  attic - vented,                         !- Name
  ,                                       !- Direction of Relative North {deg}
  0,                                      !- X Origin {m}
  0,                                      !- Y Origin {m}
  0,                                      !- Z Origin {m}
  ,                                       !- Type
  1,                                      !- Multiplier
  ,                                       !- Ceiling Height {m}
  186.913258738163,                       !- Volume {m3}
  ,                                       !- Floor Area {m2}
  ,                                       !- Zone Inside Convection Algorithm
  ,                                       !- Zone Outside Convection Algorithm
  Yes;                                    !- Part of Total Floor Area

Space,
  attic - vented 1,                       !- Name
  attic - vented,                         !- Zone Name
  ,                                       !- Ceiling Height {m}
  186.913258738163,                       !- Volume {m3}
  ;                                       !- Floor Area {m2}

BuildingSurface:Detailed,
  Roof1:135,                              !- Name
  Roof,                                   !- Surface Type
  Roof1 construction,                     !- Construction Name
  attic - vented,                         !- Zone Name
  attic - vented 1,                       !- Space Name
  Outdoors,                               !- Outside Boundary Condition
  ,                                       !- Outside Boundary Condition Object
  SunExposed,                             !- Sun Exposure
  WindExposed,                            !- Wind Exposure
  ,                                       !- View Factor to Ground
  ,                                       !- Number of Vertices
  11.1622394957773, -65.5031202849263, 3.77842272, !- X,Y,Z Vertex 1 {m}
  2.67142519121537, -57.0123059803644, 10.7829871546433, !- X,Y,Z Vertex 2 {m}
  0.21396347973737, -59.4697676918424, 10.7829871546433, !- X,Y,Z Vertex 3 {m}
  8.70477778429927, -67.9605819964043, 3.77842272; !- X,Y,Z Vertex 4 {m}

BuildingSurface:Detailed,
  Roof1:225,                              !- Name
  Roof,                                   !- Surface Type
  Roof1 construction,                     !- Construction Name
  attic - vented,                         !- Zone Name
  attic - vented 1,                       !- Space Name
  Outdoors,                               !- Outside Boundary Condition
  ,                                       !- Outside Boundary Condition Object
  SunExposed,                             !- Sun Exposure
  WindExposed,                            !- Wind Exposure
  ,                                       !- View Factor to Ground
  ,                                       !- Number of Vertices
  -65.5031202849263, -11.1622394957773, 3.77842272, !- X,Y,Z Vertex 1 {m}
  -57.0123059803644, -2.67142519121538, 10.7829871546433, !- X,Y,Z Vertex 2 {m}
  -59.4697676918424, -0.213963479737377, 10.7829871546433, !- X,Y,Z Vertex 3 {m}
  -67.9605819964043, -8.70477778429928, 3.77842272; !- X,Y,Z Vertex 4 {m}

BuildingSurface:Detailed,
  Roof1:315,                              !- Name
  Roof,                                   !- Surface Type
  Roof1 construction,                     !- Construction Name
  attic - vented,                         !- Zone Name
  attic - vented 1,                       !- Space Name
  Outdoors,                               !- Outside Boundary Condition
  ,                                       !- Outside Boundary Condition Object
  SunExposed,                             !- Sun Exposure
  WindExposed,                            !- Wind Exposure
  ,                                       !- View Factor to Ground
  ,                                       !- Number of Vertices
  -11.1622394957773, 65.5031202849263, 3.77842272, !- X,Y,Z Vertex 1 {m}
  -2.67142519121538, 57.0123059803644, 10.7829871546433, !- X,Y,Z Vertex 2 {m}
  -0.213963479737377, 59.4697676918424, 10.7829871546433, !- X,Y,Z Vertex 3 {m}
  -8.70477778429928, 67.9605819964043, 3.77842272; !- X,Y,Z Vertex 4 {m}

BuildingSurface:Detailed,
  Roof1:45,                               !- Name
  Roof,                                   !- Surface Type
  Roof1 construction,                     !- Construction Name
  attic - vented,                         !- Zone Name
  attic - vented 1,                       !- Space Name
  Outdoors,                               !- Outside Boundary Condition
  ,                                       !- Outside Boundary Condition Object
  SunExposed,                             !- Sun Exposure
  WindExposed,                            !- Wind Exposure
  ,                                       !- View Factor to Ground
  ,                                       !- Number of Vertices
  26.7741277640991, 49.8912320166045, 3.77842272, !- X,Y,Z Vertex 1 {m}
  18.2833134595372, 41.4004177120426, 10.7829871546433, !- X,Y,Z Vertex 2 {m}
  20.7407751710152, 38.9429560005646, 10.7829871546433, !- X,Y,Z Vertex 3 {m}
  29.2315894755771, 47.4337703051265, 3.77842272; !- X,Y,Z Vertex 4 {m}

BuildingSurface:Detailed,
  Surface 1 Reversed,                     !- Name
  Floor,                                  !- Surface Type
  Floor2 construction Reversed,           !- Construction Name
  attic - vented,                         !- Zone Name
  attic - vented 1,                       !- Space Name
  Surface,                                !- Outside Boundary Condition
  Floor2,                                 !- Outside Boundary Condition Object
  NoSun,                                  !- Sun Exposure
  NoWind,                                 !- Wind Exposure
  ,                                       !- View Factor to Ground
  ,                                       !- Number of Vertices
  -6.39882829345998, -4.44089209850063e-16, 3.77842272, !- X,Y,Z Vertex 1 {m}
  -4.44089209850063e-16, 6.39882829345998, 3.77842272, !- X,Y,Z Vertex 2 {m}
  6.39882829345998, 4.44089209850063e-16, 3.77842272, !- X,Y,Z Vertex 3 {m}
  4.44089209850063e-16, -6.39882829345998, 3.77842272; !- X,Y,Z Vertex 4 {m}

BuildingSurface:Detailed,
  Surface 1 Reversed 1,                   !- Name
  Floor,                                  !- Surface Type
  Floor3 construction Reversed,           !- Construction Name
  attic - vented,                         !- Zone Name
  attic - vented 1,                       !- Space Name
  Surface,                                !- Outside Boundary Condition
  Floor3,                                 !- Outside Boundary Condition Object
  NoSun,                                  !- Sun Exposure
  NoWind,                                 !- Wind Exposure
  ,                                       !- View Factor to Ground
  ,                                       !- Number of Vertices
  -6.65507330614352, -4.44089209850063e-16, 3.77842272, !- X,Y,Z Vertex 1 {m}
  -4.44089209850063e-16, 6.65507330614352, 3.77842272, !- X,Y,Z Vertex 2 {m}
  6.65507330614352, 4.44089209850063e-16, 3.77842272, !- X,Y,Z Vertex 3 {m}
  4.44089209850063e-16, -6.65507330614352, 3.77842272; !- X,Y,Z Vertex 4 {m}

BuildingSurface:Detailed,
  Wall7:135,                              !- Name
  Wall,                                   !- Surface Type
  Wall7 construction,                     !- Construction Name
  attic - vented,                         !- Zone Name
  attic - vented 1,                       !- Space Name
  Outdoors,                               !- Outside Boundary Condition
  ,                                       !- Outside Boundary Condition Object
  SunExposed,                             !- Sun Exposure
  WindExposed,                            !- Wind Exposure
  ,                                       !- View Factor to Ground
  ,                                       !- Number of Vertices
  33.2848614477943, -43.3804983329092, 1.34002272, !- X,Y,Z Vertex 1 {m}
  33.2848614477943, -43.3804983329092, 3.77842272, !- X,Y,Z Vertex 2 {m}
  29.3265783652052, -47.3387814154983, 3.77842272, !- X,Y,Z Vertex 3 {m}
  29.3265783652052, -47.3387814154983, 1.34002272; !- X,Y,Z Vertex 4 {m}

BuildingSurface:Detailed,
  Wall7:225,                              !- Name
  Wall,                                   !- Surface Type
  Wall7 construction,                     !- Construction Name
  attic - vented,                         !- Zone Name
  attic - vented 1,                       !- Space Name
  Outdoors,                               !- Outside Boundary Condition
  ,                                       !- Outside Boundary Condition Object
  SunExposed,                             !- Sun Exposure
  WindExposed,                            !- Wind Exposure
  ,                                       !- View Factor to Ground
  ,                                       !- Number of Vertices
  -32.5864038921509, -44.0789558885527, 1.34002272, !- X,Y,Z Vertex 1 {m}
  -32.5864038921509, -44.0789558885527, 3.77842272, !- X,Y,Z Vertex 2 {m}
  -36.54468697474, -40.1206728059635, 3.77842272, !- X,Y,Z Vertex 3 {m}
  -36.54468697474, -40.1206728059635, 1.34002272; !- X,Y,Z Vertex 4 {m}

BuildingSurface:Detailed,
  Wall7:315,                              !- Name
  Wall,                                   !- Surface Type
  Wall7 construction,                     !- Construction Name
  attic - vented,                         !- Zone Name
  attic - vented 1,                       !- Space Name
  Outdoors,                               !- Outside Boundary Condition
  ,                                       !- Outside Boundary Condition Object
  SunExposed,                             !- Sun Exposure
  WindExposed,                            !- Wind Exposure
  ,                                       !- View Factor to Ground
  ,                                       !- Number of Vertices
  -37.3686648472823, 39.2966949334213, 1.34002272, !- X,Y,Z Vertex 1 {m}
  -37.3686648472823, 39.2966949334213, 3.77842272, !- X,Y,Z Vertex 2 {m}
  -33.4103817646931, 43.2549780160104, 3.77842272, !- X,Y,Z Vertex 3 {m}
  -33.4103817646931, 43.2549780160104, 1.34002272; !- X,Y,Z Vertex 4 {m}

BuildingSurface:Detailed,
  Wall7:45,                               !- Name
  Wall,                                   !- Surface Type
  Wall7 construction,                     !- Construction Name
  attic - vented,                         !- Zone Name
  attic - vented 1,                       !- Space Name
  Outdoors,                               !- Outside Boundary Condition
  ,                                       !- Outside Boundary Condition Object
  SunExposed,                             !- Sun Exposure
  WindExposed,                            !- Wind Exposure
  ,                                       !- View Factor to Ground
  ,                                       !- Number of Vertices
  2.24120143549987, 74.4241583452036, 1.34002272, !- X,Y,Z Vertex 1 {m}
  2.24120143549987, 74.4241583452036, 3.77842272, !- X,Y,Z Vertex 2 {m}
  6.19948451808897, 70.4658752626145, 3.77842272, !- X,Y,Z Vertex 3 {m}
  6.19948451808897, 70.4658752626145, 1.34002272; !- X,Y,Z Vertex 4 {m}

ZoneInfiltration:EffectiveLeakageArea,
  infil attic - vented 1,                 !- Name
  attic - vented 1,                       !- Zone or Space Name
  Always On Discrete,                     !- Schedule Name
  6106.38836341454,                       !- Effective Air Leakage Area {cm2}
  0.000656646814267158,                   !- Stack Coefficient
  1.73135458145973e-05;                   !- Wind Coefficient

ZoneMixing,
  whole house fan mix,                    !- Name
  attic - vented,                         !- Zone or Space Name
  Always On Continuous,                   !- Schedule Name
  Flow/Zone,                              !- Design Flow Rate Calculation Method
  0,                                      !- Design Flow Rate {m3/s}
  ,                                       !- Flow Rate per Floor Area {m3/s-m2}
  ,                                       !- Flow Rate per Person {m3/s-person}
  ,                                       !- Air Changes per Hour {1/hr}
  conditioned space;                      !- Source Zone or Space Name

Schedule:Constant,
  Always On Continuous,                   !- Name
  Fractional 1,                           !- Schedule Type Limits Name
  1;                                      !- Hourly Value

Zone,
  conditioned space,                      !- Name
  ,                                       !- Direction of Relative North {deg}
  0,                                      !- X Origin {m}
  0,                                      !- Y Origin {m}
  0,                                      !- Z Origin {m}
  ,                                       !- Type
  1,                                      !- Multiplier
  ,                                       !- Ceiling Height {m}
  895.50016851092,                        !- Volume {m3}
  ,                                       !- Floor Area {m2}
  ,                                       !- Zone Inside Convection Algorithm
  ,                                       !- Zone Outside Convection Algorithm
  Yes;                                    !- Part of Total Floor Area

Space,
  conditioned space 1,                    !- Name
  conditioned space,                      !- Zone Name
  ,                                       !- Ceiling Height {m}
  895.50016851092,                        !- Volume {m3}
  ;                                       !- Floor Area {m2}

Shading:Zone:Detailed,
  Window1 overhangs,                      !- Name
  surface Window1,                        !- Base Surface Name
  ,                                       !- Transmittance Schedule Name
  ,                                       !- Number of Vertices
  -13.5758250897468, 63.0895346909569, 2.65675872, !- X,Y,Z Vertex 1 {m}
  -11.713555379562, 64.9518044011417, 2.65675872, !- X,Y,Z Vertex 2 {m}
  -12.0389998613895, 65.2772488829691, 2.65675872, !- X,Y,Z Vertex 3 {m}
  -13.9012695715743, 63.4149791727844, 2.65675872; !- X,Y,Z Vertex 4 {m}

Shading:Zone:Detailed,
  Window10 overhangs,                     !- Name
  surface Window10,                       !- Base Surface Name
  ,                                       !- Transmittance Schedule Name
  ,                                       !- Number of Vertices
  19.9709048453832, 56.6944549353204, 2.45559072, !- X,Y,Z Vertex 1 {m}
  21.0075108237466, 55.657848956957, 2.45559072, !- X,Y,Z Vertex 2 {m}
  22.9450908844284, 57.5954290176389, 2.45559072, !- X,Y,Z Vertex 3 {m}
  21.9084849060651, 58.6320349960022, 2.45559072; !- X,Y,Z Vertex 4 {m}

Shading:Zone:Detailed,
  Window11 overhangs,                     !- Name
  surface Window11,                       !- Base Surface Name
  ,                                       !- Transmittance Schedule Name
  ,                                       !- Number of Vertices
  13.5755517123211, -63.0898080683825, 2.45559072, !- X,Y,Z Vertex 1 {m}
  11.7135553795619, -64.9518044011417, 2.45559072, !- X,Y,Z Vertex 2 {m}
  14.7330766977102, -67.97132571929, 2.45559072, !- X,Y,Z Vertex 3 {m}
  16.5950730304694, -66.1093293865308, 2.45559072; !- X,Y,Z Vertex 4 {m}

Shading:Zone:Detailed,
  Window13 overhangs,                     !- Name
  surface Window15,                       !- Base Surface Name
  ,                                       !- Transmittance Schedule Name
  ,                                       !- Number of Vertices
  -60.2125692730077, -16.4527905076959, 4.33620672, !- X,Y,Z Vertex 1 {m}
  -65.7083011767805, -10.9570586039231, 4.33620672, !- X,Y,Z Vertex 2 {m}
  -66.033745658608, -11.2825030857506, 4.33620672, !- X,Y,Z Vertex 3 {m}
  -60.5380137548352, -16.7782349895234, 4.33620672; !- X,Y,Z Vertex 4 {m}

Shading:Zone:Detailed,
  Window15 overhangs,                     !- Name
  surface Window13,                       !- Base Surface Name
  ,                                       !- Transmittance Schedule Name
  ,                                       !- Number of Vertices
  -57.6073273554328, -19.0580324252708, 3.93691872, !- X,Y,Z Vertex 1 {m}
  -61.2798547524846, -15.385505028219, 3.93691872, !- X,Y,Z Vertex 2 {m}
  -61.6052992343121, -15.7109495100466, 3.93691872, !- X,Y,Z Vertex 3 {m}
  -57.9327718372604, -19.3834769070983, 3.93691872; !- X,Y,Z Vertex 4 {m}

Shading:Zone:Detailed,
  Window17 overhangs,                     !- Name
  surface Window5,                        !- Base Surface Name
  ,                                       !- Transmittance Schedule Name
  ,                                       !- Number of Vertices
  -18.5413677824013, 58.1239919983023, 4.94275872, !- X,Y,Z Vertex 1 {m}
  -12.1895609128495, 64.4757988678541, 4.94275872, !- X,Y,Z Vertex 2 {m}
  -12.5150053946771, 64.8012433496816, 4.94275872, !- X,Y,Z Vertex 3 {m}
  -18.8668122642288, 58.4494364801298, 4.94275872; !- X,Y,Z Vertex 4 {m}

Shading:Zone:Detailed,
  Window19 overhangs,                     !- Name
  surface Window13,                       !- Base Surface Name
  ,                                       !- Transmittance Schedule Name
  ,                                       !- Number of Vertices
  -54.2303799123009, -22.4349798684027, 5.49139872, !- X,Y,Z Vertex 1 {m}
  -60.138035372399, -16.5273244083045, 5.49139872, !- X,Y,Z Vertex 2 {m}
  -60.4634798542266, -16.8527688901321, 5.49139872, !- X,Y,Z Vertex 3 {m}
  -54.5558243941285, -22.7604243502302, 5.49139872; !- X,Y,Z Vertex 4 {m}

Shading:Zone:Detailed,
  Window2 overhangs,                      !- Name
  surface Window2,                        !- Base Surface Name
  ,                                       !- Transmittance Schedule Name
  ,                                       !- Number of Vertices
  14.4306263767712, -62.2347334039324, 3.26635872, !- X,Y,Z Vertex 1 {m}
  14.021259784122, -62.6440999965816, 3.26635872, !- X,Y,Z Vertex 2 {m}
  17.0407811022703, -65.6636213147299, 3.26635872, !- X,Y,Z Vertex 3 {m}
  17.4501476949195, -65.2542547220807, 3.26635872; !- X,Y,Z Vertex 4 {m}

Shading:Zone:Detailed,
  Window21 overhangs,                     !- Name
  Wall1:225,                              !- Base Surface Name
  ,                                       !- Transmittance Schedule Name
  ,                                       !- Number of Vertices
  -50.1557429609436, -26.50961681976, 6.79899072, !- X,Y,Z Vertex 1 {m}
  -59.1297202837604, -17.5356394969432, 6.79899072, !- X,Y,Z Vertex 2 {m}
  -59.455164765588, -17.8610839787707, 6.79899072, !- X,Y,Z Vertex 3 {m}
  -50.4811874427711, -26.8350613015875, 6.79899072; !- X,Y,Z Vertex 4 {m}

Shading:Zone:Detailed,
  Window3 overhangs,                      !- Name
  Wall1:225,                              !- Base Surface Name
  ,                                       !- Transmittance Schedule Name
  ,                                       !- Number of Vertices
  -50.7166167834449, -25.9487429972587, 3.98568672, !- X,Y,Z Vertex 1 {m}
  -53.9171052767411, -22.7482545039625, 3.98568672, !- X,Y,Z Vertex 2 {m}
  -54.2425497585686, -23.07369898579, 3.98568672, !- X,Y,Z Vertex 3 {m}
  -51.0420612652724, -26.2741874790862, 3.98568672; !- X,Y,Z Vertex 4 {m}

Shading:Zone:Detailed,
  Window4 overhangs,                      !- Name
  surface Window4,                        !- Base Surface Name
  ,                                       !- Transmittance Schedule Name
  ,                                       !- Number of Vertices
  15.555158037911, -61.1102017427926, 2.35195872, !- X,Y,Z Vertex 1 {m}
  14.8763344485722, -61.7890253321314, 2.35195872, !- X,Y,Z Vertex 2 {m}
  15.2017789303997, -62.1144698139589, 2.35195872, !- X,Y,Z Vertex 3 {m}
  15.8806025197385, -61.4356462246201, 2.35195872; !- X,Y,Z Vertex 4 {m}

Shading:Zone:Detailed,
  Window5 overhangs,                      !- Name
  surface Window5,                        !- Base Surface Name
  ,                                       !- Transmittance Schedule Name
  ,                                       !- Number of Vertices
  -18.4435037400933, 58.2218560406103, 2.96155872, !- X,Y,Z Vertex 1 {m}
  -17.1551036055041, 59.5102561751995, 2.96155872, !- X,Y,Z Vertex 2 {m}
  -17.4805480873316, 59.835700657027, 2.96155872, !- X,Y,Z Vertex 3 {m}
  -18.7689482219208, 58.5473005224378, 2.96155872; !- X,Y,Z Vertex 4 {m}

Shading:Zone:Detailed,
  Window7 overhangs,                      !- Name
  surface Window7,                        !- Base Surface Name
  ,                                       !- Transmittance Schedule Name
  ,                                       !- Number of Vertices
  -19.6389614373989, 57.0263983433046, 2.65675872, !- X,Y,Z Vertex 1 {m}
  -18.8892118118943, 57.7761479688094, 2.65675872, !- X,Y,Z Vertex 2 {m}
  -19.2146562937218, 58.1015924506368, 2.65675872, !- X,Y,Z Vertex 3 {m}
  -19.9644059192265, 57.3518428251323, 2.65675872; !- X,Y,Z Vertex 4 {m}

Shading:Zone:Detailed,
  Window9 overhangs,                      !- Name
  Wall1:225,                              !- Base Surface Name
  ,                                       !- Transmittance Schedule Name
  ,                                       !- Number of Vertices
  -49.885055008223, -26.7803047724806, 3.26635872, !- X,Y,Z Vertex 1 {m}
  -51.7839022629218, -24.8814575177818, 3.26635872, !- X,Y,Z Vertex 2 {m}
  -52.1093467447493, -25.2069019996093, 3.26635872, !- X,Y,Z Vertex 3 {m}
  -50.2104994900505, -27.1057492543081, 3.26635872; !- X,Y,Z Vertex 4 {m}

BuildingSurface:Detailed,
  Floor1,                                 !- Name
  Floor,                                  !- Surface Type
  Floor1 construction,                    !- Construction Name
  conditioned space,                      !- Zone Name
  conditioned space 1,                    !- Space Name
  Outdoors,                               !- Outside Boundary Condition
  ,                                       !- Outside Boundary Condition Object
  NoSun,                                  !- Sun Exposure
  WindExposed,                            !- Wind Exposure
  ,                                       !- View Factor to Ground
  ,                                       !- Number of Vertices
  -1.61716436270405, -1.11022302462516e-16, 1.34002272, !- X,Y,Z Vertex 1 {m}
  -1.11022302462516e-16, 1.61716436270405, 1.34002272, !- X,Y,Z Vertex 2 {m}
  1.61716436270405, 1.11022302462516e-16, 1.34002272, !- X,Y,Z Vertex 3 {m}
  1.11022302462516e-16, -1.61716436270405, 1.34002272; !- X,Y,Z Vertex 4 {m}

BuildingSurface:Detailed,
  Floor2,                                 !- Name
  Ceiling,                                !- Surface Type
  Floor2 construction,                    !- Construction Name
  conditioned space,                      !- Zone Name
  conditioned space 1,                    !- Space Name
  Surface,                                !- Outside Boundary Condition
  Surface 1 Reversed,                     !- Outside Boundary Condition Object
  NoSun,                                  !- Sun Exposure
  NoWind,                                 !- Wind Exposure
  ,                                       !- View Factor to Ground
  ,                                       !- Number of Vertices
  4.44089209850063e-16, -6.39882829345998, 3.77842272, !- X,Y,Z Vertex 1 {m}
  6.39882829345998, 4.44089209850063e-16, 3.77842272, !- X,Y,Z Vertex 2 {m}
  -4.44089209850063e-16, 6.39882829345998, 3.77842272, !- X,Y,Z Vertex 3 {m}
  -6.39882829345998, -4.44089209850063e-16, 3.77842272; !- X,Y,Z Vertex 4 {m}

BuildingSurface:Detailed,
  Floor3,                                 !- Name
  Ceiling,                                !- Surface Type
  Floor3 construction,                    !- Construction Name
  conditioned space,                      !- Zone Name
  conditioned space 1,                    !- Space Name
  Surface,                                !- Outside Boundary Condition
  Surface 1 Reversed 1,                   !- Outside Boundary Condition Object
  NoSun,                                  !- Sun Exposure
  NoWind,                                 !- Wind Exposure
  ,                                       !- View Factor to Ground
  ,                                       !- Number of Vertices
  4.44089209850063e-16, -6.65507330614352, 3.77842272, !- X,Y,Z Vertex 1 {m}
  6.65507330614352, 4.44089209850063e-16, 3.77842272, !- X,Y,Z Vertex 2 {m}
  -4.44089209850063e-16, 6.65507330614352, 3.77842272, !- X,Y,Z Vertex 3 {m}
  -6.65507330614352, -4.44089209850063e-16, 3.77842272; !- X,Y,Z Vertex 4 {m}

BuildingSurface:Detailed,
  FoundationWall1,                        !- Name
  Wall,                                   !- Surface Type
  FoundationWall1 construction,           !- Construction Name
  conditioned space,                      !- Zone Name
  conditioned space 1,                    !- Space Name
  Foundation,                             !- Outside Boundary Condition
  Foundation Kiva 1,                      !- Outside Boundary Condition Object
  NoSun,                                  !- Sun Exposure
  NoWind,                                 !- Wind Exposure
  ,                                       !- View Factor to Ground
  ,                                       !- Number of Vertices
  46.6642278945092, 30.0011318861944, -1.33999224, !- X,Y,Z Vertex 1 {m}
  46.6642278945092, 30.0011318861944, 1.01001576, !- X,Y,Z Vertex 2 {m}
  73.6652465920842, 3.00011318861951, 1.01001576, !- X,Y,Z Vertex 3 {m}
  73.6652465920842, 3.00011318861951, 0.567484860104525, !- X,Y,Z Vertex 4 {m}
  76.6653597807036, 1.4210854715202e-14, 0.567484860104525, !- X,Y,Z Vertex 5 {m}
  76.6653597807036, 1.4210854715202e-14, -1.33999224; !- X,Y,Z Vertex 6 {m}

BuildingSurface:Detailed,
  FoundationWall2,                        !- Name
  Wall,                                   !- Surface Type
  FoundationWall2 construction,           !- Construction Name
  conditioned space,                      !- Zone Name
  conditioned space 1,                    !- Space Name
  Foundation,                             !- Outside Boundary Condition
  Foundation Kiva 2,                      !- Outside Boundary Condition Object
  NoSun,                                  !- Sun Exposure
  NoWind,                                 !- Wind Exposure
  ,                                       !- View Factor to Ground
  ,                                       !- Number of Vertices
  38.5932909556448, 38.0720688250588, -1.00998528, !- X,Y,Z Vertex 1 {m}
  38.5932909556448, 38.0720688250588, 1.34002272, !- X,Y,Z Vertex 2 {m}
  43.5822425024922, 33.0831172782113, 1.34002272, !- X,Y,Z Vertex 3 {m}
  43.5822425024922, 33.0831172782113, -0.90998528, !- X,Y,Z Vertex 4 {m}
  46.0073041987408, 30.6580555819628, -0.90998528, !- X,Y,Z Vertex 5 {m}
  46.0073041987408, 30.6580555819628, -1.00998528; !- X,Y,Z Vertex 6 {m}

BuildingSurface:Detailed,
  inferred conditioned ceiling,           !- Name
  Ceiling,                                !- Surface Type
  AdiabaticFloorConstruction,             !- Construction Name
  conditioned space,                      !- Zone Name
  conditioned space 1,                    !- Space Name
  Adiabatic,                              !- Outside Boundary Condition
  ,                                       !- Outside Boundary Condition Object
  NoSun,                                  !- Sun Exposure
  NoWind,                                 !- Wind Exposure
  ,                                       !- View Factor to Ground
  ,                                       !- Number of Vertices
  1.77635683940025e-15, -9.10768207666473, 1.34002272, !- X,Y,Z Vertex 1 {m}
  9.10768207666473, 0, 1.34002272,        !- X,Y,Z Vertex 2 {m}
  -1.77635683940025e-15, 9.10768207666473, 1.34002272, !- X,Y,Z Vertex 3 {m}
  -9.10768207666473, 0, 1.34002272;       !- X,Y,Z Vertex 4 {m}

BuildingSurface:Detailed,
  inferred conditioned floor,             !- Name
  Floor,                                  !- Surface Type
  AdiabaticFloorConstruction,             !- Construction Name
  conditioned space,                      !- Zone Name
  conditioned space 1,                    !- Space Name
  Adiabatic,                              !- Outside Boundary Condition
  ,                                       !- Outside Boundary Condition Object
  NoSun,                                  !- Sun Exposure
  NoWind,                                 !- Wind Exposure
  ,                                       !- View Factor to Ground
  ,                                       !- Number of Vertices
  -9.10768207666473, 0, 1.34002272,       !- X,Y,Z Vertex 1 {m}
  -1.77635683940025e-15, 9.10768207666473, 1.34002272, !- X,Y,Z Vertex 2 {m}
  9.10768207666473, 0, 1.34002272,        !- X,Y,Z Vertex 3 {m}
  1.77635683940025e-15, -9.10768207666473, 1.34002272; !- X,Y,Z Vertex 4 {m}

BuildingSurface:Detailed,
  RimJoist1:135,                          !- Name
  Wall,                                   !- Surface Type
  RimJoist1 construction,                 !- Construction Name
  conditioned space,                      !- Zone Name
  conditioned space 1,                    !- Space Name
  Outdoors,                               !- Outside Boundary Condition