
Version,
  24.2;                                   !- Version Identifier

Timestep,
  1;                                      !- Number of Timesteps per Hour

Building,
  Building 1,                             !- Name
  ,                                       !- North Axis {deg}
  Suburbs,                                !- Terrain
  ,                                       !- Loads Convergence Tolerance Value {W}
  ,                                       !- Temperature Convergence Tolerance Value {deltaC}
  ,                                       !- Solar Distribution
  ,                                       !- Maximum Number of Warmup Days
  ;                                       !- Minimum Number of Warmup Days

Zone,
  attic - vented,                         !- Name
  ,                                       !- Direction of Relative North {deg}
  0,                                      !- X Origin {m}
  0,                                      !- Y Origin {m}
  0,                                      !- Z Origin {m}
  ,                                       !- Type
  1,                                      !- Multiplier
  ,                                       !- Ceiling Height {m}
  19.0434693992241,                       !- Volume {m3}
  ,                                       !- Floor Area {m2}
  ,                                       !- Zone Inside Convection Algorithm
  ,                                       !- Zone Outside Convection Algorithm
  Yes;                                    !- Part of Total Floor Area

Space,
  attic - vented 1,                       !- Name
  attic - vented,                         !- Zone Name
  ,                                       !- Ceiling Height {m}
  19.0434693992241,                       !- Volume {m3}
  ;                                       !- Floor Area {m2}

BuildingSurface:Detailed,
  Roof1:135,                              !- Name
  Roof,                                   !- Surface Type
  Roof1 construction,                     !- Construction Name
  attic - vented,                         !- Zone Name
  attic - vented 1,                       !- Space Name
  Outdoors,                               !- Outside Boundary Condition
  ,                                       !- Outside Boundary Condition Object
  SunExposed,                             !- Sun Exposure
  WindExposed,                            !- Wind Exposure
  ,                                       !- View Factor to Ground
  ,                                       !- Number of Vertices
  6.37357431983052, -54.9008725804584, 4.16841432, !- X,Y,Z Vertex 1 {m}
  1.50019713584712, -50.027495396475, 6.46574635604964, !- X,Y,Z Vertex 2 {m}
  0.215949485973422, -51.3117430463487, 6.46574635604964, !- X,Y,Z Vertex 3 {m}
  5.08932666995682, -56.1851202303321, 4.16841432; !- X,Y,Z Vertex 4 {m}

BuildingSurface:Detailed,
  Roof1:225,                              !- Name
  Roof,                                   !- Surface Type
  Roof1 construction,                     !- Construction Name
  attic - vented,                         !- Zone Name
  attic - vented 1,                       !- Space Name
  Outdoors,                               !- Outside Boundary Condition
  ,                                       !- Outside Boundary Condition Object
  SunExposed,                             !- Sun Exposure
  WindExposed,                            !- Wind Exposure
  ,                                       !- View Factor to Ground
  ,                                       !- Number of Vertices
  -54.9008725804584, -6.37357431983053, 4.16841432, !- X,Y,Z Vertex 1 {m}
  -50.027495396475, -1.50019713584713, 6.46574635604964, !- X,Y,Z Vertex 2 {m}
  -51.3117430463487, -0.215949485973429, 6.46574635604964, !- X,Y,Z Vertex 3 {m}
  -56.1851202303321, -5.08932666995683, 4.16841432; !- X,Y,Z Vertex 4 {m}

BuildingSurface:Detailed,
  Roof1:315,                              !- Name
  Roof,                                   !- Surface Type
  Roof1 construction,                     !- Construction Name
  attic - vented,                         !- Zone Name
  attic - vented 1,                       !- Space Name
  Outdoors,                               !- Outside Boundary Condition
  ,                                       !- Outside Boundary Condition Object
  SunExposed,                             !- Sun Exposure
  WindExposed,                            !- Wind Exposure
  ,                                       !- View Factor to Ground
  ,                                       !- Number of Vertices
  -6.37357431983053, 54.9008725804584, 4.16841432, !- X,Y,Z Vertex 1 {m}
  -1.50019713584713, 50.027495396475, 6.46574635604964, !- X,Y,Z Vertex 2 {m}
  -0.215949485973429, 51.3117430463487, 6.46574635604964, !- X,Y,Z Vertex 3 {m}
  -5.08932666995683, 56.1851202303321, 4.16841432; !- X,Y,Z Vertex 4 {m}

BuildingSurface:Detailed,
  Roof1:45,                               !- Name
  Roof,                                   !- Surface Type
  Roof1 construction,                     !- Construction Name
  attic - vented,                         !- Zone Name
  attic - vented 1,                       !- Space Name
  Outdoors,                               !- Outside Boundary Condition
  ,                                       !- Outside Boundary Condition Object
  SunExposed,                             !- Sun Exposure
  WindExposed,                            !- Wind Exposure
  ,                                       !- View Factor to Ground
  ,                                       !- Number of Vertices
  26.8619122883078, 34.4125346119811, 4.16841432, !- X,Y,Z Vertex 1 {m}
  21.9885351043244, 29.5391574279977, 6.46574635604964, !- X,Y,Z Vertex 2 {m}
  23.2727827541981, 28.254909778124, 6.46574635604964, !- X,Y,Z Vertex 3 {m}
  28.1461599381815, 33.1282869621074, 4.16841432; !- X,Y,Z Vertex 4 {m}

BuildingSurface:Detailed,
  Surface 1 Reversed,                     !- Name
  Floor,                                  !- Surface Type
  Floor3 construction Reversed,           !- Construction Name
  attic - vented,                         !- Zone Name
  attic - vented 1,                       !- Space Name
  Surface,                                !- Outside Boundary Condition
  Floor3,                                 !- Outside Boundary Condition Object
  NoSun,                                  !- Sun Exposure
  NoWind,                                 !- Wind Exposure
  ,                                       !- View Factor to Ground
  ,                                       !- Number of Vertices
  -5.00166119812848, 0, 4.16841432,       !- X,Y,Z Vertex 1 {m}
  -4.44089209850063e-16, 5.00166119812848, 4.16841432, !- X,Y,Z Vertex 2 {m}
  5.00166119812848, 0, 4.16841432,        !- X,Y,Z Vertex 3 {m}
  4.44089209850063e-16, -5.00166119812848, 4.16841432; !- X,Y,Z Vertex 4 {m}

BuildingSurface:Detailed,
  Wall7:135,                              !- Name
  Wall,                                   !- Surface Type
  Wall7 construction,                     !- Construction Name
  attic - vented,                         !- Zone Name
  attic - vented 1,                       !- Space Name
  Outdoors,                               !- Outside Boundary Condition
  ,                                       !- Outside Boundary Condition Object
  SunExposed,                             !- Sun Exposure
  WindExposed,                            !- Wind Exposure
  ,                                       !- View Factor to Ground
  ,                                       !- Number of Vertices
  33.0272953306113, -28.2471515696776, 1.73001432, !- X,Y,Z Vertex 1 {m}
  33.0272953306113, -28.2471515696776, 4.16841432, !- X,Y,Z Vertex 2 {m}
  31.7982687623091, -29.4761781379799, 4.16841432, !- X,Y,Z Vertex 3 {m}
  31.7982687623091, -29.4761781379799, 1.73001432; !- X,Y,Z Vertex 4 {m}

BuildingSurface:Detailed,
  Wall7:225,                              !- Name
  Wall,                                   !- Surface Type
  Wall7 construction,                     !- Construction Name
  attic - vented,                         !- Zone Name
  attic - vented 1,                       !- Space Name
  Outdoors,                               !- Outside Boundary Condition
  ,                                       !- Outside Boundary Condition Object
  SunExposed,                             !- Sun Exposure
  WindExposed,                            !- Wind Exposure
  ,                                       !- View Factor to Ground
  ,                                       !- Number of Vertices
  -25.4545226809169, -35.819924219372, 1.73001432, !- X,Y,Z Vertex 1 {m}
  -25.4545226809169, -35.819924219372, 4.16841432, !- X,Y,Z Vertex 2 {m}
  -26.6835492492192, -34.5908976510698, 4.16841432, !- X,Y,Z Vertex 3 {m}
  -26.6835492492192, -34.5908976510698, 1.73001432; !- X,Y,Z Vertex 4 {m}

BuildingSurface:Detailed,
  Wall7:315,                              !- Name
  Wall,                                   !- Surface Type
  Wall7 construction,                     !- Construction Name
  attic - vented,                         !- Zone Name
  attic - vented 1,                       !- Space Name
  Outdoors,                               !- Outside Boundary Condition
  ,                                       !- Outside Boundary Condition Object
  SunExposed,                             !- Sun Exposure
  WindExposed,                            !- Wind Exposure
  ,                                       !- View Factor to Ground
  ,                                       !- Number of Vertices
  -27.2679813243374, 34.0064655759515, 1.73001432, !- X,Y,Z Vertex 1 {m}
  -27.2679813243374, 34.0064655759515, 4.16841432, !- X,Y,Z Vertex 2 {m}
  -26.0389547560352, 35.2354921442538, 4.16841432, !- X,Y,Z Vertex 3 {m}
  -26.0389547560352, 35.2354921442538, 1.73001432; !- X,Y,Z Vertex 4 {m}

BuildingSurface:Detailed,
  Wall7:45,                               !- Name
  Wall,                                   !- Surface Type
  Wall7 construction,                     !- Construction Name
  attic - vented,                         !- Zone Name
  attic - vented 1,                       !- Space Name
  Outdoors,                               !- Outside Boundary Condition
  ,                                       !- Outside Boundary Condition Object
  SunExposed,                             !- Sun Exposure
  WindExposed,                            !- Wind Exposure
  ,                                       !- View Factor to Ground
  ,                                       !- Number of Vertices
  4.57217972550885, 56.70226717478, 1.73001432, !- X,Y,Z Vertex 1 {m}
  4.57217972550885, 56.70226717478, 4.16841432, !- X,Y,Z Vertex 2 {m}
  5.80120629381116, 55.4732406064778, 4.16841432, !- X,Y,Z Vertex 3 {m}
  5.80120629381116, 55.4732406064778, 1.73001432; !- X,Y,Z Vertex 4 {m}

ZoneInfiltration:EffectiveLeakageArea,
  infil attic - vented 1,                 !- Name
  attic - vented 1,                       !- Zone or Space Name
  Always On Discrete,                     !- Schedule Name
  1792.23508591265,                       !- Effective Air Leakage Area {cm2}
  0.000329314390976859,                   !- Stack Coefficient
  1.22609876378209e-05;                   !- Wind Coefficient

ZoneMixing,
  whole house fan mix,                    !- Name
  attic - vented,                         !- Zone or Space Name
  Always On Continuous,                   !- Schedule Name
  Flow/Zone,                              !- Design Flow Rate Calculation Method
  0,                                      !- Design Flow Rate {m3/s}
  ,                                       !- Flow Rate per Floor Area {m3/s-m2}
  ,                                       !- Flow Rate per Person {m3/s-person}
  ,                                       !- Air Changes per Hour {1/hr}
  conditioned space;                      !- Source Zone or Space Name

Schedule:Constant,
  Always On Continuous,                   !- Name
  Fractional 1,                           !- Schedule Type Limits Name
  1;                                      !- Hourly Value

Zone,
  conditioned space,                      !- Name
  ,                                       !- Direction of Relative North {deg}
  0,                                      !- X Origin {m}
  0,                                      !- Y Origin {m}
  0,                                      !- Z Origin {m}
  ,                                       !- Type
  1,                                      !- Multiplier
  ,                                       !- Ceiling Height {m}
  488.700067201782,                       !- Volume {m3}
  ,                                       !- Floor Area {m2}
  ,                                       !- Zone Inside Convection Algorithm
  ,                                       !- Zone Outside Convection Algorithm
  Yes;                                    !- Part of Total Floor Area

Space,
  conditioned space 1,                    !- Name
  conditioned space,                      !- Zone Name
  ,                                       !- Ceiling Height {m}
  488.700067201782,                       !- Volume {m3}
  ;                                       !- Floor Area {m2}

Shading:Zone:Detailed,
  Window11 overhangs,                     !- Name
  surface Window12,                       !- Base Surface Name
  ,                                       !- Transmittance Schedule Name
  ,                                       !- Number of Vertices
  10.9256282269537, -50.3488186733352, 2.79681432, !- X,Y,Z Vertex 1 {m}
  9.74023441897265, -51.5342124813163, 2.79681432, !- X,Y,Z Vertex 2 {m}
  11.8976511494983, -53.691629211842, 2.79681432, !- X,Y,Z Vertex 3 {m}
  13.0830449574794, -52.5062354038609, 2.79681432; !- X,Y,Z Vertex 4 {m}

Shading:Zone:Detailed,
  Window17 overhangs,                     !- Name
  Roof3:225,                              !- Base Surface Name
  ,                                       !- Transmittance Schedule Name
  ,                                       !- Number of Vertices
  -45.5318092899936, -15.7426376102953, 9.96571032, !- X,Y,Z Vertex 1 {m}
  -56.2800982361789, -4.99434866410999, 9.96571032, !- X,Y,Z Vertex 2 {m}
  -56.4913138601464, -5.20556428807759, 9.96571032, !- X,Y,Z Vertex 3 {m}
  -45.7430249139612, -15.9538532342628, 9.96571032; !- X,Y,Z Vertex 4 {m}

Shading:Zone:Detailed,
  Window2 overhangs,                      !- Name
  surface Window2,                        !- Base Surface Name
  ,                                       !- Transmittance Schedule Name
  ,                                       !- Number of Vertices
  -48.6150319285729, -12.659414971716, 3.55576632, !- X,Y,Z Vertex 1 {m}
  -49.2230178449734, -12.0514290553155, 3.55576632, !- X,Y,Z Vertex 2 {m}
  -49.5139781432961, -12.3423893536382, 3.55576632, !- X,Y,Z Vertex 3 {m}
  -48.9059922268955, -12.9503752700387, 3.55576632; !- X,Y,Z Vertex 4 {m}

Shading:Zone:Detailed,
  Window3 overhangs,                      !- Name
  surface Window3,                        !- Base Surface Name
  ,                                       !- Transmittance Schedule Name
  ,                                       !- Number of Vertices
  -46.4509338874932, -14.8235130127958, 3.55576632, !- X,Y,Z Vertex 1 {m}
  -47.16648069522, -14.107966205069, 3.55576632, !- X,Y,Z Vertex 2 {m}
  -47.4574409935426, -14.3989265033916, 3.55576632, !- X,Y,Z Vertex 3 {m}
  -46.7418941858158, -15.1144733111184, 3.55576632; !- X,Y,Z Vertex 4 {m}

Shading:Zone:Detailed,
  Window4 overhangs,                      !- Name
  surface Window4,                        !- Base Surface Name
  ,                                       !- Transmittance Schedule Name
  ,                                       !- Number of Vertices
  -13.4834925384302, 47.7909543618588, 3.45518232, !- X,Y,Z Vertex 1 {m}
  -11.763593886123, 49.5108530141659, 3.45518232, !- X,Y,Z Vertex 2 {m}
  -12.0545541844456, 49.8018133124886, 3.45518232, !- X,Y,Z Vertex 3 {m}
  -13.7744528367528, 48.0819146601814, 3.45518232; !- X,Y,Z Vertex 4 {m}

Shading:Zone:Detailed,
  Window6 overhangs,                      !- Name
  surface Window6,                        !- Base Surface Name
  ,                                       !- Transmittance Schedule Name
  ,                                       !- Number of Vertices
  -14.500344899531, 46.7741020007579, 3.45518232, !- X,Y,Z Vertex 1 {m}
  -13.8559217202831, 47.4185251800058, 3.45518232, !- X,Y,Z Vertex 2 {m}
  -14.1468820186057, 47.7094854783285, 3.45518232, !- X,Y,Z Vertex 3 {m}
  -14.7913051978537, 47.0650622990805, 3.45518232; !- X,Y,Z Vertex 4 {m}

Shading:Zone:Detailed,
  Window7 overhangs,                      !- Name
  surface Window7,                        !- Base Surface Name
  ,                                       !- Transmittance Schedule Name
  ,                                       !- Number of Vertices
  17.0510111134617, 44.2234357868273, 3.25401432, !- X,Y,Z Vertex 1 {m}
  18.3075285499217, 42.9669183503673, 3.25401432, !- X,Y,Z Vertex 2 {m}
  19.6006854313556, 44.2600752318012, 3.25401432, !- X,Y,Z Vertex 3 {m}
  18.3441679948956, 45.5165926682612, 3.25401432; !- X,Y,Z Vertex 4 {m}

Shading:Zone:Detailed,
  Window8 overhangs,                      !- Name
  surface Window8,                        !- Base Surface Name
  ,                                       !- Transmittance Schedule Name
  ,                                       !- Number of Vertices
  -45.0420529722591, -16.2323939280298, 3.14733432, !- X,Y,Z Vertex 1 {m}
  -46.14747307265, -15.1269738276389, 3.14733432, !- X,Y,Z Vertex 2 {m}
  -49.8092623085772, -18.7887630635661, 3.14733432, !- X,Y,Z Vertex 3 {m}
  -48.7038422081863, -19.894183163957, 3.14733432; !- X,Y,Z Vertex 4 {m}

BuildingSurface:Detailed,
  Floor1,                                 !- Name
  Floor,                                  !- Surface Type
  Floor1 construction,                    !- Construction Name
  conditioned space,                      !- Zone Name
  conditioned space 1,                    !- Space Name
  Outdoors,                               !- Outside Boundary Condition
  ,                                       !- Outside Boundary Condition Object
  NoSun,                                  !- Sun Exposure
  WindExposed,                            !- Wind Exposure
  ,                                       !- View Factor to Ground
  ,                                       !- Number of Vertices
  -2.92742906400821, -4.44089209850063e-16, 1.73001432, !- X,Y,Z Vertex 1 {m}
  0, 2.92742906400821, 1.73001432,        !- X,Y,Z Vertex 2 {m}
  2.92742906400821, 4.44089209850063e-16, 1.73001432, !- X,Y,Z Vertex 3 {m}
  0, -2.92742906400821, 1.73001432;       !- X,Y,Z Vertex 4 {m}

BuildingSurface:Detailed,
  Floor2,                                 !- Name
  Floor,                                  !- Surface Type
  Floor2 construction,                    !- Construction Name
  conditioned space,                      !- Zone Name
  conditioned space 1,                    !- Space Name
  Outdoors,                               !- Outside Boundary Condition
  ,                                       !- Outside Boundary Condition Object
  NoSun,                                  !- Sun Exposure
  WindExposed,                            !- Wind Exposure
  ,                                       !- View Factor to Ground
  ,                                       !- Number of Vertices
  -0.940692009108189, -5.55111512312578e-17, 1.73001432, !- X,Y,Z Vertex 1 {m}
  -5.55111512312578e-17, 0.940692009108189, 1.73001432, !- X,Y,Z Vertex 2 {m}
  0.940692009108189, 5.55111512312578e-17, 1.73001432, !- X,Y,Z Vertex 3 {m}
  5.55111512312578e-17, -0.940692009108189, 1.73001432; !- X,Y,Z Vertex 4 {m}

BuildingSurface:Detailed,
  Floor3,                                 !- Name
  Ceiling,                                !- Surface Type
  Floor3 construction,                    !- Construction Name
  conditioned space,                      !- Zone Name
  conditioned space 1,                    !- Space Name
  Surface,                                !- Outside Boundary Condition
  Surface 1 Reversed,                     !- Outside Boundary Condition Object
  NoSun,                                  !- Sun Exposure
  NoWind,                                 !- Wind Exposure
  ,                                       !- View Factor to Ground
  ,                                       !- Number of Vertices
  4.44089209850063e-16, -5.00166119812848, 4.16841432, !- X,Y,Z Vertex 1 {m}
  5.00166119812848, 0, 4.16841432,        !- X,Y,Z Vertex 2 {m}
  -4.44089209850063e-16, 5.00166119812848, 4.16841432, !- X,Y,Z Vertex 3 {m}
  -5.00166119812848, 0, 4.16841432;       !- X,Y,Z Vertex 4 {m}

BuildingSurface:Detailed,
  FoundationWall1,                        !- Name
  Wall,                                   !- Surface Type
  FoundationWall1 construction,           !- Construction Name
  conditioned space,                      !- Zone Name
  conditioned space 1,                    !- Space Name
  Foundation,                             !- Outside Boundary Condition
  Foundation Kiva 1,                      !- Outside Boundary Condition Object
  NoSun,                                  !- Sun Exposure
  NoWind,                                 !- Wind Exposure
  ,                                       !- View Factor to Ground
  ,                                       !- Number of Vertices
  46.0801337274308, 15.1943131728581, -0.60999624, !- X,Y,Z Vertex 1 {m}
  46.0801337274308, 15.1943131728581, 1.73001432, !- X,Y,Z Vertex 2 {m}
  59.7550155830031, 1.51943131728586, 1.73001432, !- X,Y,Z Vertex 3 {m}
  59.7550155830031, 1.51943131728586, 0.136810473687937, !- X,Y,Z Vertex 4 {m}
  61.2744469002889, -3.5527136788005e-14, 0.136810473687937, !- X,Y,Z Vertex 5 {m}
  61.2744469002889, -3.5527136788005e-14, -0.60999624; !- X,Y,Z Vertex 6 {m}

BuildingSurface:Detailed,
  FoundationWall2,                        !- Name
  Wall,                                   !- Surface Type
  FoundationWall2 construction,           !- Construction Name
  conditioned space,                      !- Zone Name
  conditioned space 1,                    !- Space Name
  Foundation,                             !- Outside Boundary Condition
  Foundation Kiva 2,                      !- Outside Boundary Condition Object
  NoSun,                                  !- Sun Exposure
  NoWind,                                 !- Wind Exposure
  ,                                       !- View Factor to Ground
  ,                                       !- Number of Vertices
  33.8924103039068, 27.3820365963821, -0.60999624, !- X,Y,Z Vertex 1 {m}
  33.8924103039068, 27.3820365963821, 1.21999248, !- X,Y,Z Vertex 2 {m}
  44.2701300588869, 17.004316841402, 1.21999248, !- X,Y,Z Vertex 3 {m}
  44.2701300588869, 17.004316841402, 0.776756410191569, !- X,Y,Z Vertex 4 {m}
  45.4232100316625, 15.8512368686265, 0.776756410191569, !- X,Y,Z Vertex 5 {m}
  45.4232100316625, 15.8512368686265, -0.60999624; !- X,Y,Z Vertex 6 {m}

BuildingSurface:Detailed,
  inferred conditioned ceiling,           !- Name
  Ceiling,                                !- Surface Type
  AdiabaticFloorConstruction,             !- Construction Name
  conditioned space,                      !- Zone Name
  conditioned space 1,                    !- Space Name
  Adiabatic,                              !- Outside Boundary Condition
  ,                                       !- Outside Boundary Condition Object
  NoSun,                                  !- Sun Exposure
  NoWind,                                 !- Wind Exposure
  ,                                       !- View Factor to Ground
  ,                                       !- Number of Vertices
  4.44089209850063e-16, -7.5861836040001, 1.73001432, !- X,Y,Z Vertex 1 {m}
  7.5861836040001, 4.44089209850063e-16, 1.73001432, !- X,Y,Z Vertex 2 {m}
  -4.44089209850063e-16, 7.5861836040001, 1.73001432, !- X,Y,Z Vertex 3 {m}
  -7.5861836040001, -4.44089209850063e-16, 1.73001432; !- X,Y,Z Vertex 4 {m}

BuildingSurface:Detailed,
  inferred conditioned floor,             !- Name
  Floor,                                  !- Surface Type
  AdiabaticFloorConstruction,             !- Construction Name
  conditioned space,                      !- Zone Name
  conditioned space 1,                    !- Space Name
  Adiabatic,                              !- Outside Boundary Condition
  ,                                       !- Outside Boundary Condition Object
  NoSun,                                  !- Sun Exposure
  NoWind,                                 !- Wind Exposure
  ,                                       !- View Factor to Ground
  ,                                       !- Number of Vertices
  -7.5861836040001, -4.44089209850063e-16, 1.73001432, !- X,Y,Z Vertex 1 {m}
  -4.44089209850063e-16, 7.5861836040001, 1.73001432, !- X,Y,Z Vertex 2 {m}
  7.5861836040001, 4.44089209850063e-16, 1.73001432, !- X,Y,Z Vertex 3 {m}
  4.44089209850063e-16, -7.5861836040001, 1.73001432; !- X,Y,Z Vertex 4 {m}

BuildingSurface:Detailed,
  RimJoist1:135,                          !- Name
  Wall,                                   !- Surface Type
  RimJoist1 construction,                 !- Construction Name
  conditioned space,                      !- Zone Name
  conditioned space 1,                    !- Space Name
  Outdoors,                               !- Outside Boundary Condition
  ,                                       !- Outside Boundary Condition Object
  SunExposed,                             !- Sun Exposure
  WindExposed,                            !- Wind Exposure
  ,                                       !- View Factor to Ground
  ,                                       !- Number of Vertices
  2.34115277076271, -58.9332941295262, 1.73001432, !- X,Y,Z Vertex 1 {m}
  2.34115277076271, -58.9332941295262, 2.03481432, !- X,Y,Z Vertex 2 {m}
  1.4210854715202e-14, -61.2744469002889, 2.03481432, !- X,Y,Z Vertex 3 {m}
  1.4210854715202e-14, -61.2744469002889, 1.73001432; !- X,Y,Z Vertex 4 {m}

BuildingSurface:Detailed,
  RimJoist1:225,                          !- Name
  Wall,                                   !- Surface Type
  RimJoist1 construction,                 !- Construction Name
  conditioned space,                      !- Zone Name
  conditioned space 1,                    !- Space Name
  Outdoors,                               !- Outside Boundary Condition
  ,                                       !- Outside Boundary Condition Object
  SunExposed,                             !- Sun Exposure
  WindExposed,                            !- Wind Exposure
  ,                                       !- View Factor to Ground
  ,                                       !- Number of Vertices
  -58.9332941295262, -2.34115277076272, 1.73001432, !- X,Y,Z Vertex 1 {m}
  -58.9332941295262, -2.34115277076272, 2.03481432, !- X,Y,Z Vertex 2 {m}
  -61.2744469002889, -2.1316282072803e-14, 2.03481432, !- X,Y,Z Vertex 3 {m}
  -61.2744469002889, -2.1316282072803e-14, 1.73001432; !- X,Y,Z Vertex 4 {m}

BuildingSurface:Detailed,
  RimJoist1:315,                          !- Name
  Wall,                                   !- Surface Type
  RimJoist1 construction,                 !- Construction Name
  conditioned space,                      !- Zone Name
  conditioned space 1,                    !- Space Name
  Outdoors,                               !- Outside Boundary Condition
  ,                                       !- Outside Boundary Condition Object
  SunExposed,                             !- Sun Exposure
  WindExposed,                            !- Wind Exposure
  ,                                       !- View Factor to Ground
  ,                                       !- Number of Vertices
  -2.34115277076272, 58.9332941295262, 1.73001432, !- X,Y,Z Vertex 1 {m}
  -2.34115277076272, 58.9332941295262, 2.03481432, !- X,Y,Z Vertex 2 {m}
  -2.1316282072803e-14, 61.2744469002889, 2.03481432, !- X,Y,Z Vertex 3 {m}
  -2.1316282072803e-14, 61.2744469002889, 1.73001432; !- X,Y,Z Vertex 4 {m}

BuildingSurface:Detailed,
  RimJoist1:45,                           !- Name
  Wall,                                   !- Surface Type
  RimJoist1 construction,                 !- Construction Name
  conditioned space,                      !- Zone Name
  conditioned space 1,                    !- Space Name
  Outdoors,                               !- Outside Boundary Condition
  ,                                       !- Outside Boundary Condition Object
  SunExposed,                             !- Sun Exposure
  WindExposed,                            !- Wind Exposure
  ,                                       !- View Factor to Ground
  ,                                       !- Number of Vertices
  30.8943338373756, 30.3801130629133, 1.73001432, !- X,Y,Z Vertex 1 {m}
  30.8943338373756, 30.3801130629133, 2.03481432, !- X,Y,Z Vertex 2 {m}
  33.2354866081383, 28.0389602921506, 2.03481432, !- X,Y,Z Vertex 3 {m}
  33.2354866081383, 28.0389602921506, 1.73001432; !- X,Y,Z Vertex 4 {m}

BuildingSurface:Detailed,
  RimJoist2:135,                          !- Name
  Wall,                                   !- Surface Type
  RimJoist2 construction,                 !- Construction Name
  conditioned space,                      !- Zone Name
  conditioned space 1,                    !- Space Name
  Outdoors,                               !- Outside Boundary Condition
  ,                                       !- Outside Boundary Condition Object
  SunExposed,                             !- Sun Exposure
  WindExposed,                            !- Wind Exposure
  ,                                       !- View Factor to Ground
  ,                                       !- Number of Vertices
  4.43240297418831, -56.8420439261006, 1.73001432, !- X,Y,Z Vertex 1 {m}
  4.43240297418831, -56.8420439261006, 2.03481432, !- X,Y,Z Vertex 2 {m}