
Version,
  24.2;                                   !- Version Identifier

Timestep,
  1;                                      !- Number of Timesteps per Hour

Building,
  Building 1,                             !- Name
  ,                                       !- North Axis {deg}
  Suburbs,                                !- Terrain
  ,                                       !- Loads Convergence Tolerance Value {W}
  ,                                       !- Temperature Convergence Tolerance Value {deltaC}
  ,                                       !- Solar Distribution
  ,                                       !- Maximum Number of Warmup Days
  ;                                       !- Minimum Number of Warmup Days

Zone,
  attic - vented,                         !- Name
  ,                                       !- Direction of Relative North {deg}
  0,                                      !- X Origin {m}
  0,                                      !- Y Origin {m}
  0,                                      !- Z Origin {m}
  ,                                       !- Type
  1,                                      !- Multiplier
  ,                                       !- Ceiling Height {m}
  49.767963631232,                        !- Volume {m3}
  ,                                       !- Floor Area {m2}
  ,                                       !- Zone Inside Convection Algorithm
  ,                                       !- Zone Outside Convection Algorithm
  Yes;                                    !- Part of Total Floor Area

Space,
  attic - vented 1,                       !- Name
  attic - vented,                         !- Zone Name
  ,                                       !- Ceiling Height {m}
  49.767963631232,                        !- Volume {m3}
  ;                                       !- Floor Area {m2}

BuildingSurface:Detailed,
  Roof1:0,                                !- Name
  Roof,                                   !- Surface Type
  Roof1 construction,                     !- Construction Name
  attic - vented,                         !- Zone Name
  attic - vented 1,                       !- Space Name
  Outdoors,                               !- Outside Boundary Condition
  ,                                       !- Outside Boundary Condition Object
  SunExposed,                             !- Sun Exposure
  WindExposed,                            !- Wind Exposure
  ,                                       !- View Factor to Ground
  ,                                       !- Number of Vertices
  -17.3288099177034, 43.1609178059902, 4.17838128, !- X,Y,Z Vertex 1 {m}
  -17.3288099177034, 33.6052509317807, 7.36360357140319, !- X,Y,Z Vertex 2 {m}
  -14.8106705940098, 33.6052509317807, 7.36360357140319, !- X,Y,Z Vertex 3 {m}
  -14.8106705940098, 43.1609178059902, 4.17838128; !- X,Y,Z Vertex 4 {m}

BuildingSurface:Detailed,
  Roof1:180,                              !- Name
  Roof,                                   !- Surface Type
  Roof1 construction,                     !- Construction Name
  attic - vented,                         !- Zone Name
  attic - vented 1,                       !- Space Name
  Outdoors,                               !- Outside Boundary Condition
  ,                                       !- Outside Boundary Condition Object
  SunExposed,                             !- Sun Exposure
  WindExposed,                            !- Wind Exposure
  ,                                       !- View Factor to Ground
  ,                                       !- Number of Vertices
  -29.6542812822966, -43.1609178059902, 4.17838128, !- X,Y,Z Vertex 1 {m}
  -29.6542812822966, -33.6052509317807, 7.36360357140319, !- X,Y,Z Vertex 2 {m}
  -32.1724206059903, -33.6052509317807, 7.36360357140319, !- X,Y,Z Vertex 3 {m}
  -32.1724206059903, -43.1609178059902, 4.17838128; !- X,Y,Z Vertex 4 {m}

BuildingSurface:Detailed,
  Roof1:270,                              !- Name
  Roof,                                   !- Surface Type
  Roof1 construction,                     !- Construction Name
  attic - vented,                         !- Zone Name
  attic - vented 1,                       !- Space Name
  Outdoors,                               !- Outside Boundary Condition
  ,                                       !- Outside Boundary Condition Object
  SunExposed,                             !- Sun Exposure
  WindExposed,                            !- Wind Exposure
  ,                                       !- View Factor to Ground
  ,                                       !- Number of Vertices
  -43.1609178059902, 29.6542812822966, 4.17838128, !- X,Y,Z Vertex 1 {m}
  -33.6052509317807, 29.6542812822966, 7.36360357140319, !- X,Y,Z Vertex 2 {m}
  -33.6052509317807, 32.1724206059902, 7.36360357140319, !- X,Y,Z Vertex 3 {m}
  -43.1609178059902, 32.1724206059902, 4.17838128; !- X,Y,Z Vertex 4 {m}

BuildingSurface:Detailed,
  Roof1:90,                               !- Name
  Roof,                                   !- Surface Type
  Roof1 construction,                     !- Construction Name
  attic - vented,                         !- Zone Name
  attic - vented 1,                       !- Space Name
  Outdoors,                               !- Outside Boundary Condition
  ,                                       !- Outside Boundary Condition Object
  SunExposed,                             !- Sun Exposure
  WindExposed,                            !- Wind Exposure
  ,                                       !- View Factor to Ground
  ,                                       !- Number of Vertices
  43.1609178059902, -29.6542812822966, 4.17838128, !- X,Y,Z Vertex 1 {m}
  33.6052509317807, -29.6542812822966, 7.36360357140319, !- X,Y,Z Vertex 2 {m}
  33.6052509317807, -32.1724206059903, 7.36360357140319, !- X,Y,Z Vertex 3 {m}
  43.1609178059902, -32.1724206059903, 4.17838128; !- X,Y,Z Vertex 4 {m}

BuildingSurface:Detailed,
  Surface 1 Reversed,                     !- Name
  Floor,                                  !- Surface Type
  Floor1 construction Reversed,           !- Construction Name
  attic - vented,                         !- Zone Name
  attic - vented 1,                       !- Space Name
  Surface,                                !- Outside Boundary Condition
  Floor1,                                 !- Outside Boundary Condition Object
  NoSun,                                  !- Sun Exposure
  NoWind,                                 !- Wind Exposure
  ,                                       !- View Factor to Ground
  ,                                       !- Number of Vertices
  -4.90535427059698, -4.90535427059698, 4.17838128, !- X,Y,Z Vertex 1 {m}
  -4.90535427059698, 4.90535427059698, 4.17838128, !- X,Y,Z Vertex 2 {m}
  4.90535427059698, 4.90535427059698, 4.17838128, !- X,Y,Z Vertex 3 {m}
  4.90535427059698, -4.90535427059698, 4.17838128; !- X,Y,Z Vertex 4 {m}

BuildingSurface:Detailed,
  Wall3:0,                                !- Name
  Wall,                                   !- Surface Type
  Wall3 construction,                     !- Construction Name
  attic - vented,                         !- Zone Name
  attic - vented 1,                       !- Space Name
  Outdoors,                               !- Outside Boundary Condition
  ,                                       !- Outside Boundary Condition Object
  SunExposed,                             !- Sun Exposure
  WindExposed,                            !- Wind Exposure
  ,                                       !- View Factor to Ground
  ,                                       !- Number of Vertices
  -42.2318874059902, 43.1609178059903, 1.73998128, !- X,Y,Z Vertex 1 {m}
  -42.2318874059902, 43.1609178059903, 4.17838128, !- X,Y,Z Vertex 2 {m}
  -41.3715960199889, 43.1609178059903, 4.17838128, !- X,Y,Z Vertex 3 {m}
  -41.3715960199889, 43.1609178059903, 1.73998128; !- X,Y,Z Vertex 4 {m}

BuildingSurface:Detailed,
  Wall3:180,                              !- Name
  Wall,                                   !- Surface Type
  Wall3 construction,                     !- Construction Name
  attic - vented,                         !- Zone Name
  attic - vented 1,                       !- Space Name
  Outdoors,                               !- Outside Boundary Condition
  ,                                       !- Outside Boundary Condition Object
  SunExposed,                             !- Sun Exposure
  WindExposed,                            !- Wind Exposure
  ,                                       !- View Factor to Ground
  ,                                       !- Number of Vertices
  -9.9937734962952, -43.1609178059903, 1.73998128, !- X,Y,Z Vertex 1 {m}
  -9.9937734962952, -43.1609178059903, 4.17838128, !- X,Y,Z Vertex 2 {m}
  -10.8540648822966, -43.1609178059903, 4.17838128, !- X,Y,Z Vertex 3 {m}
  -10.8540648822966, -43.1609178059903, 1.73998128; !- X,Y,Z Vertex 4 {m}

BuildingSurface:Detailed,
  Wall3:270,                              !- Name
  Wall,                                   !- Surface Type
  Wall3 construction,                     !- Construction Name
  attic - vented,                         !- Zone Name
  attic - vented 1,                       !- Space Name
  Outdoors,                               !- Outside Boundary Condition
  ,                                       !- Outside Boundary Condition Object
  SunExposed,                             !- Sun Exposure
  WindExposed,                            !- Wind Exposure
  ,                                       !- View Factor to Ground
  ,                                       !- Number of Vertices
  -43.1609178059903, 7.41168021624028, 1.73998128, !- X,Y,Z Vertex 1 {m}
  -43.1609178059903, 7.41168021624028, 4.17838128, !- X,Y,Z Vertex 2 {m}
  -43.1609178059903, 8.27197160224166, 4.17838128, !- X,Y,Z Vertex 3 {m}
  -43.1609178059903, 8.27197160224166, 1.73998128; !- X,Y,Z Vertex 4 {m}

BuildingSurface:Detailed,
  Wall3:90,                               !- Name
  Wall,                                   !- Surface Type
  Wall3 construction,                     !- Construction Name
  attic - vented,                         !- Zone Name
  attic - vented 1,                       !- Space Name
  Outdoors,                               !- Outside Boundary Condition
  ,                                       !- Outside Boundary Condition Object
  SunExposed,                             !- Sun Exposure
  WindExposed,                            !- Wind Exposure
  ,                                       !- View Factor to Ground
  ,                                       !- Number of Vertices
  43.1609178059903, -8.7635244962952, 1.73998128, !- X,Y,Z Vertex 1 {m}
  43.1609178059903, -8.7635244962952, 4.17838128, !- X,Y,Z Vertex 2 {m}
  43.1609178059903, -9.62381588229658, 4.17838128, !- X,Y,Z Vertex 3 {m}
  43.1609178059903, -9.62381588229658, 1.73998128; !- X,Y,Z Vertex 4 {m}

ZoneInfiltration:EffectiveLeakageArea,
  infil attic - vented 1,                 !- Name
  attic - vented 1,                       !- Zone or Space Name
  Always On Discrete,                     !- Schedule Name
  3666.66674591452,                       !- Effective Air Leakage Area {cm2}
  0.00039105657374126,                    !- Stack Coefficient
  1.33610286461955e-05;                   !- Wind Coefficient

ZoneMixing,
  whole house fan mix,                    !- Name
  attic - vented,                         !- Zone or Space Name
  Always On Continuous,                   !- Schedule Name
  Flow/Zone,                              !- Design Flow Rate Calculation Method
  0,                                      !- Design Flow Rate {m3/s}
  ,                                       !- Flow Rate per Floor Area {m3/s-m2}
  ,                                       !- Flow Rate per Person {m3/s-person}
  ,                                       !- Air Changes per Hour {1/hr}
  conditioned space;                      !- Source Zone or Space Name

Schedule:Constant,
  Always On Continuous,                   !- Name
  Fractional 1,                           !- Schedule Type Limits Name
  1;                                      !- Hourly Value

Zone,
  conditioned space,                      !- Name
  ,                                       !- Direction of Relative North {deg}
  0,                                      !- X Origin {m}
  0,                                      !- Y Origin {m}
  0,                                      !- Z Origin {m}
  ,                                       !- Type
  1,                                      !- Multiplier
  ,                                       !- Ceiling Height {m}
  473.700067225068,                       !- Volume {m3}
  ,                                       !- Floor Area {m2}
  ,                                       !- Zone Inside Convection Algorithm
  ,                                       !- Zone Outside Convection Algorithm
  Yes;                                    !- Part of Total Floor Area

Space,
  conditioned space 1,                    !- Name
  conditioned space,                      !- Zone Name
  ,                                       !- Ceiling Height {m}
  473.700067225068,                       !- Volume {m3}
  ;                                       !- Floor Area {m2}

Shading:Zone:Detailed,
  Window1 overhangs,                      !- Name
  surface Window1,                        !- Base Surface Name
  ,                                       !- Transmittance Schedule Name
  ,                                       !- Number of Vertices
  -43.1609178059903, 27.8416871420368, 2.97746928, !- X,Y,Z Vertex 1 {m}
  -43.1609178059903, 29.0239548822966, 2.97746928, !- X,Y,Z Vertex 2 {m}
  -43.6211658059903, 29.0239548822966, 2.97746928, !- X,Y,Z Vertex 3 {m}
  -43.6211658059903, 27.8416871420368, 2.97746928; !- X,Y,Z Vertex 4 {m}

Shading:Zone:Detailed,
  Window10 overhangs,                     !- Name
  surface Window10,                       !- Base Surface Name
  ,                                       !- Transmittance Schedule Name
  ,                                       !- Number of Vertices
  -27.4877628822966, -43.1609178059903, 2.95308528, !- X,Y,Z Vertex 1 {m}
  -29.0239548822966, -43.1609178059903, 2.95308528, !- X,Y,Z Vertex 2 {m}
  -29.0239548822966, -43.6211658059903, 2.95308528, !- X,Y,Z Vertex 3 {m}
  -27.4877628822966, -43.6211658059903, 2.95308528; !- X,Y,Z Vertex 4 {m}

Shading:Zone:Detailed,
  Window11 overhangs,                     !- Name
  surface Window13,                       !- Base Surface Name
  ,                                       !- Transmittance Schedule Name
  ,                                       !- Number of Vertices
  43.1609178059903, -24.9609708822966, 3.87662928, !- X,Y,Z Vertex 1 {m}
  43.1609178059903, -29.7950988822966, 3.87662928, !- X,Y,Z Vertex 2 {m}
  43.6211658059903, -29.7950988822966, 3.87662928, !- X,Y,Z Vertex 3 {m}
  43.6211658059903, -24.9609708822966, 3.87662928; !- X,Y,Z Vertex 4 {m}

Shading:Zone:Detailed,
  Window14 overhangs,                     !- Name
  Wall1:270,                              !- Base Surface Name
  ,                                       !- Transmittance Schedule Name
  ,                                       !- Number of Vertices
  -43.1609178059903, 21.3206318189599, 5.72371728, !- X,Y,Z Vertex 1 {m}
  -43.1609178059903, 30.5611127420368, 5.72371728, !- X,Y,Z Vertex 2 {m}
  -43.6211658059903, 30.5611127420368, 5.72371728, !- X,Y,Z Vertex 3 {m}
  -43.6211658059903, 21.3206318189599, 5.72371728; !- X,Y,Z Vertex 4 {m}

Shading:Zone:Detailed,
  Window16 overhangs,                     !- Name
  surface Door2,                          !- Base Surface Name
  ,                                       !- Transmittance Schedule Name
  ,                                       !- Number of Vertices
  -27.7644991156737, 43.1609178059903, 5.72371728, !- X,Y,Z Vertex 1 {m}
  -19.7945066541352, 43.1609178059903, 5.72371728, !- X,Y,Z Vertex 2 {m}
  -19.7945066541352, 43.6211658059903, 5.72371728, !- X,Y,Z Vertex 3 {m}
  -27.7644991156737, 43.6211658059903, 5.72371728; !- X,Y,Z Vertex 4 {m}

Shading:Zone:Detailed,
  Window17 overhangs,                     !- Name
  Wall1:180,                              !- Base Surface Name
  ,                                       !- Transmittance Schedule Name
  ,                                       !- Number of Vertices
  -23.1266844822966, -43.1609178059903, 5.06534928, !- X,Y,Z Vertex 1 {m}
  -29.5975884822966, -43.1609178059903, 5.06534928, !- X,Y,Z Vertex 2 {m}
  -29.5975884822966, -43.6211658059903, 5.06534928, !- X,Y,Z Vertex 3 {m}
  -23.1266844822966, -43.6211658059903, 5.06534928; !- X,Y,Z Vertex 4 {m}

Shading:Zone:Detailed,
  Window18 overhangs,                     !- Name
  Wall1:90,                               !- Base Surface Name
  ,                                       !- Transmittance Schedule Name
  ,                                       !- Number of Vertices
  43.1609178059903, -19.2879570822966, 4.91599728, !- X,Y,Z Vertex 1 {m}
  43.1609178059903, -26.0411820822966, 4.91599728, !- X,Y,Z Vertex 2 {m}
  43.6211658059903, -26.0411820822966, 4.91599728, !- X,Y,Z Vertex 3 {m}
  43.6211658059903, -19.2879570822966, 4.91599728; !- X,Y,Z Vertex 4 {m}

Shading:Zone:Detailed,
  Window2 overhangs,                      !- Name
  surface Window4,                        !- Base Surface Name
  ,                                       !- Transmittance Schedule Name
  ,                                       !- Number of Vertices
  -27.6784826113585, 43.1609178059903, 4.27591728, !- X,Y,Z Vertex 1 {m}
  -24.4324255156737, 43.1609178059903, 4.27591728, !- X,Y,Z Vertex 2 {m}
  -24.4324255156737, 43.6211658059903, 4.27591728, !- X,Y,Z Vertex 3 {m}
  -27.6784826113585, 43.6211658059903, 4.27591728; !- X,Y,Z Vertex 4 {m}

Shading:Zone:Detailed,
  Window3 overhangs,                      !- Name
  surface Window6,                        !- Base Surface Name
  ,                                       !- Transmittance Schedule Name
  ,                                       !- Number of Vertices
  -43.1609178059903, 21.3245583601364, 4.05341328, !- X,Y,Z Vertex 1 {m}
  -43.1609178059903, 24.8112014189599, 4.05341328, !- X,Y,Z Vertex 2 {m}
  -43.6211658059903, 24.8112014189599, 4.05341328, !- X,Y,Z Vertex 3 {m}
  -43.6211658059903, 21.3245583601364, 4.05341328; !- X,Y,Z Vertex 4 {m}

Shading:Zone:Detailed,
  Window4 overhangs,                      !- Name
  Wall1:0,                                !- Base Surface Name
  ,                                       !- Transmittance Schedule Name
  ,                                       !- Number of Vertices
  -30.0280068199889, 43.1609178059903, 4.27591728, !- X,Y,Z Vertex 1 {m}
  -26.7848090113585, 43.1609178059903, 4.27591728, !- X,Y,Z Vertex 2 {m}
  -26.7848090113585, 43.6211658059903, 4.27591728, !- X,Y,Z Vertex 3 {m}
  -30.0280068199889, 43.6211658059903, 4.27591728; !- X,Y,Z Vertex 4 {m}

Shading:Zone:Detailed,
  Window6 overhangs,                      !- Name
  Wall1:270,                              !- Base Surface Name
  ,                                       !- Transmittance Schedule Name
  ,                                       !- Number of Vertices
  -43.1609178059903, 19.4570648022417, 3.85224528, !- X,Y,Z Vertex 1 {m}
  -43.1609178059903, 22.5352239601364, 3.85224528, !- X,Y,Z Vertex 2 {m}
  -43.6211658059903, 22.5352239601364, 3.85224528, !- X,Y,Z Vertex 3 {m}
  -43.6211658059903, 19.4570648022417, 3.85224528; !- X,Y,Z Vertex 4 {m}

Shading:Zone:Detailed,
  Window7 overhangs,                      !- Name
  surface Window7,                        !- Base Surface Name
  ,                                       !- Transmittance Schedule Name
  ,                                       !- Number of Vertices
  -22.8103020822966, -43.1609178059903, 3.25788528, !- X,Y,Z Vertex 1 {m}
  -25.2365100822966, -43.1609178059903, 3.25788528, !- X,Y,Z Vertex 2 {m}
  -25.2365100822966, -43.6211658059903, 3.25788528, !- X,Y,Z Vertex 3 {m}
  -22.8103020822966, -43.6211658059903, 3.25788528; !- X,Y,Z Vertex 4 {m}

BuildingSurface:Detailed,
  Floor1,                                 !- Name
  Ceiling,                                !- Surface Type
  Floor1 construction,                    !- Construction Name
  conditioned space,                      !- Zone Name
  conditioned space 1,                    !- Space Name
  Surface,                                !- Outside Boundary Condition
  Surface 1 Reversed,                     !- Outside Boundary Condition Object
  NoSun,                                  !- Sun Exposure
  NoWind,                                 !- Wind Exposure
  ,                                       !- View Factor to Ground
  ,                                       !- Number of Vertices
  4.90535427059698, -4.90535427059698, 4.17838128, !- X,Y,Z Vertex 1 {m}
  4.90535427059698, 4.90535427059698, 4.17838128, !- X,Y,Z Vertex 2 {m}
  -4.90535427059698, 4.90535427059698, 4.17838128, !- X,Y,Z Vertex 3 {m}
  -4.90535427059698, -4.90535427059698, 4.17838128; !- X,Y,Z Vertex 4 {m}

BuildingSurface:Detailed,
  FoundationWall1,                        !- Name
  Wall,                                   !- Surface Type
  FoundationWall1 construction,           !- Construction Name
  conditioned space,                      !- Zone Name
  conditioned space 1,                    !- Space Name
  Foundation,                             !- Outside Boundary Condition
  Foundation Kiva 1,                      !- Outside Boundary Condition Object
  NoSun,                                  !- Sun Exposure
  NoWind,                                 !- Wind Exposure
  ,                                       !- View Factor to Ground
  ,                                       !- Number of Vertices
  31.8829215659902, 43.1609178059903, -1.19000016, !- X,Y,Z Vertex 1 {m}
  31.8829215659902, 43.1609178059903, 1.2499848, !- X,Y,Z Vertex 2 {m}
  42.0331181819902, 43.1609178059903, 1.2499848, !- X,Y,Z Vertex 3 {m}
  42.0331181819902, 43.1609178059903, -0.178406094373979, !- X,Y,Z Vertex 4 {m}
  43.1609178059902, 43.1609178059903, -0.178406094373979, !- X,Y,Z Vertex 5 {m}
  43.1609178059902, 43.1609178059903, -1.19000016; !- X,Y,Z Vertex 6 {m}

BuildingSurface:Detailed,
  FoundationWall2,                        !- Name
  Wall,                                   !- Surface Type
  FoundationWall2 construction,           !- Construction Name
  conditioned space,                      !- Zone Name
  conditioned space 1,                    !- Space Name
  Foundation,                             !- Outside Boundary Condition
  Foundation Kiva 2,                      !- Outside Boundary Condition Object
  NoSun,                                  !- Sun Exposure
  NoWind,                                 !- Wind Exposure
  ,                                       !- View Factor to Ground
  ,                                       !- Number of Vertices
  13.2758874059902, 43.1609178059903, -1.04000808, !- X,Y,Z Vertex 1 {m}
  13.2758874059902, 43.1609178059903, 1.39997688, !- X,Y,Z Vertex 2 {m}
  29.1860907899902, 43.1609178059903, 1.39997688, !- X,Y,Z Vertex 3 {m}
  29.1860907899902, 43.1609178059903, -0.128261511550158, !- X,Y,Z Vertex 4 {m}
  30.9538911659902, 43.1609178059903, -0.128261511550158, !- X,Y,Z Vertex 5 {m}
  30.9538911659902, 43.1609178059903, -1.04000808; !- X,Y,Z Vertex 6 {m}

BuildingSurface:Detailed,
  FoundationWall3,                        !- Name
  Wall,                                   !- Surface Type
  FoundationWall3 construction,           !- Construction Name
  conditioned space,                      !- Zone Name
  conditioned space 1,                    !- Space Name
  Foundation,                             !- Outside Boundary Condition
  Foundation Kiva 3,                      !- Outside Boundary Condition Object
  NoSun,                                  !- Sun Exposure
  NoWind,                                 !- Wind Exposure
  ,                                       !- View Factor to Ground
  ,                                       !- Number of Vertices
  -2.89314299400976, 43.1609178059903, -0.70000368, !- X,Y,Z Vertex 1 {m}
  -2.89314299400976, 43.1609178059903, 1.73998128, !- X,Y,Z Vertex 2 {m}
  10.8228570059902, 43.1609178059903, 1.73998128, !- X,Y,Z Vertex 3 {m}
  10.8228570059902, 43.1609178059903, 0.756086880000001, !- X,Y,Z Vertex 4 {m}
  12.3468570059902, 43.1609178059903, 0.756086880000001, !- X,Y,Z Vertex 5 {m}
  12.3468570059902, 43.1609178059903, -0.70000368; !- X,Y,Z Vertex 6 {m}

BuildingSurface:Detailed,
  inferred conditioned ceiling,           !- Name
  Ceiling,                                !- Surface Type
  AdiabaticFloorConstruction,             !- Construction Name
  conditioned space,                      !- Zone Name
  conditioned space 1,                    !- Space Name
  Adiabatic,                              !- Outside Boundary Condition
  ,                                       !- Outside Boundary Condition Object
  NoSun,                                  !- Sun Exposure
  NoWind,                                 !- Wind Exposure
  ,                                       !- View Factor to Ground
  ,                                       !- Number of Vertices
  4.91832697827056, -4.91832697827056, 1.73998128, !- X,Y,Z Vertex 1 {m}
  4.91832697827056, 4.91832697827056, 1.73998128, !- X,Y,Z Vertex 2 {m}
  -4.91832697827056, 4.91832697827056, 1.73998128, !- X,Y,Z Vertex 3 {m}
  -4.91832697827056, -4.91832697827056, 1.73998128; !- X,Y,Z Vertex 4 {m}

BuildingSurface:Detailed,
  inferred conditioned floor,             !- Name
  Floor,                                  !- Surface Type
  AdiabaticFloorConstruction,             !- Construction Name
  conditioned space,                      !- Zone Name
  conditioned space 1,                    !- Space Name
  Adiabatic,                              !- Outside Boundary Condition
  ,                                       !- Outside Boundary Condition Object
  NoSun,                                  !- Sun Exposure
  NoWind,                                 !- Wind Exposure
  ,                                       !- View Factor to Ground
  ,                                       !- Number of Vertices
  -4.91832697827056, -4.91832697827056, 1.73998128, !- X,Y,Z Vertex 1 {m}
  -4.91832697827056, 4.91832697827056, 1.73998128, !- X,Y,Z Vertex 2 {m}
  4.91832697827056, 4.91832697827056, 1.73998128, !- X,Y,Z Vertex 3 {m}
  4.91832697827056, -4.91832697827056, 1.73998128; !- X,Y,Z Vertex 4 {m}

BuildingSurface:Detailed,
  RimJoist1:0,                            !- Name
  Wall,                                   !- Surface Type
  RimJoist1 construction,                 !- Construction Name
  conditioned space,                      !- Zone Name
  conditioned space 1,                    !- Space Name
  Outdoors,                               !- Outside Boundary Condition
  ,                                       !- Outside Boundary Condition Object
  SunExposed,                             !- Sun Exposure
  WindExposed,                            !- Wind Exposure
  ,                                       !- View Factor to Ground
  ,                                       !- Number of Vertices
  -5.85061739400976, 43.1609178059903, 1.73998128, !- X,Y,Z Vertex 1 {m}
  -5.85061739400976, 43.1609178059903, 2.04478128, !- X,Y,Z Vertex 2 {m}
  -3.82217339400976, 43.1609178059903, 2.04478128, !- X,Y,Z Vertex 3 {m}
  -3.82217339400976, 43.1609178059903, 1.73998128; !- X,Y,Z Vertex 4 {m}

BuildingSurface:Detailed,
  RimJoist1:180,                          !- Name
  Wall,                                   !- Surface Type
  RimJoist1 construction,                 !- Construction Name
  conditioned space,                      !- Zone Name
  conditioned space 1,                    !- Space Name
  Outdoors,                               !- Outside Boundary Condition
  ,                                       !- Outside Boundary Condition Object
  SunExposed,                             !- Sun Exposure
  WindExposed,                            !- Wind Exposure
  ,                                       !- View Factor to Ground
  ,                                       !- Number of Vertices
  -41.1324738059902, -43.1609178059903, 1.73998128, !- X,Y,Z Vertex 1 {m}
  -41.1324738059902, -43.1609178059903, 2.04478128, !- X,Y,Z Vertex 2 {m}
  -43.1609178059902, -43.1609178059903, 2.04478128, !- X,Y,Z Vertex 3 {m}
  -43.1609178059902, -43.1609178059903, 1.73998128; !- X,Y,Z Vertex 4 {m}

BuildingSurface:Detailed,
  RimJoist1:270,                          !- Name
  Wall,                                   !- Surface Type
  RimJoist1 construction,                 !- Construction Name
  conditioned space,                      !- Zone Name
  conditioned space 1,                    !- Space Name
  Outdoors,                               !- Outside Boundary Condition
  ,                                       !- Outside Boundary Condition Object
  SunExposed,                             !- Sun Exposure
  WindExposed,                            !- Wind Exposure
  ,                                       !- View Factor to Ground
  ,                                       !- Number of Vertices
  -43.1609178059903, 41.1324738059902, 1.73998128, !- X,Y,Z Vertex 1 {m}
  -43.1609178059903, 41.1324738059902, 2.04478128, !- X,Y,Z Vertex 2 {m}
  -43.1609178059903, 43.1609178059902, 2.04478128, !- X,Y,Z Vertex 3 {m}
  -43.1609178059903, 43.1609178059902, 1.73998128; !- X,Y,Z Vertex 4 {m}

BuildingSurface:Detailed,
  RimJoist1:90,                           !- Name
  Wall,                                   !- Surface Type
  RimJoist1 construction,                 !- Construction Name
  conditioned space,                      !- Zone Name
  conditioned space 1,                    !- Space Name
  Outdoors,                               !- Outside Boundary Condition