
Version,
  24.2;                                   !- Version Identifier

Timestep,
  1;                                      !- Number of Timesteps per Hour

Building,
  Building 1,                             !- Name
  ,                                       !- North Axis {deg}
  Suburbs,                                !- Terrain
  ,                                       !- Loads Convergence Tolerance Value {W}
  ,                                       !- Temperature Convergence Tolerance Value {deltaC}
  ,                                       !- Solar Distribution
  ,                                       !- Maximum Number of Warmup Days
  ;                                       !- Minimum Number of Warmup Days

Zone,
  attic - vented,                         !- Name
  ,                                       !- Direction of Relative North {deg}
  0,                                      !- X Origin {m}
  0,                                      !- Y Origin {m}
  0,                                      !- Z Origin {m}
  ,                                       !- Type
  1,                                      !- Multiplier
  ,                                       !- Ceiling Height {m}
  22.0039280471388,                       !- Volume {m3}
  ,                                       !- Floor Area {m2}
  ,                                       !- Zone Inside Convection Algorithm
  ,                                       !- Zone Outside Convection Algorithm
  Yes;                                    !- Part of Total Floor Area

Space,
  attic - vented 1,                       !- Name
  attic - vented,                         !- Zone Name
  ,                                       !- Ceiling Height {m}
  22.0039280471388,                       !- Volume {m3}
  ;                                       !- Floor Area {m2}

Shading:Zone:Detailed,
  Window16 overhangs,                     !- Name
  surface Window16,                       !- Base Surface Name
  ,                                       !- Transmittance Schedule Name
  ,                                       !- Number of Vertices
  -17.4684866598446, 39.5265142712868, 1.98400416, !- X,Y,Z Vertex 1 {m}
  -16.2119692233846, 40.7830317077468, 1.98400416, !- X,Y,Z Vertex 2 {m}
  -17.2874446964438, 41.858507180806, 1.98400416, !- X,Y,Z Vertex 3 {m}
  -18.5439621329038, 40.601989744346, 1.98400416; !- X,Y,Z Vertex 4 {m}

BuildingSurface:Detailed,
  Roof1:135,                              !- Name
  Roof,                                   !- Surface Type
  Roof1 construction,                     !- Construction Name
  attic - vented,                         !- Zone Name
  attic - vented 1,                       !- Space Name
  Outdoors,                               !- Outside Boundary Condition
  ,                                       !- Outside Boundary Condition Object
  SunExposed,                             !- Sun Exposure
  WindExposed,                            !- Wind Exposure
  ,                                       !- View Factor to Ground
  ,                                       !- Number of Vertices
  12.532269673208, -44.4627312579234, 5.33680416, !- X,Y,Z Vertex 1 {m}
  7.38477248133975, -39.3152340660551, 7.76335760700582, !- X,Y,Z Vertex 2 {m}
  6.02828786670445, -40.6717186806905, 7.76335760700582, !- X,Y,Z Vertex 3 {m}
  11.1757850585727, -45.8192158725587, 5.33680416; !- X,Y,Z Vertex 4 {m}

BuildingSurface:Detailed,
  Roof1:225,                              !- Name
  Roof,                                   !- Surface Type
  Roof1 construction,                     !- Construction Name
  attic - vented,                         !- Zone Name
  attic - vented 1,                       !- Space Name
  Outdoors,                               !- Outside Boundary Condition
  ,                                       !- Outside Boundary Condition Object
  SunExposed,                             !- Sun Exposure
  WindExposed,                            !- Wind Exposure
  ,                                       !- View Factor to Ground
  ,                                       !- Number of Vertices
  -44.4627312579234, -12.5322696732081, 5.33680416, !- X,Y,Z Vertex 1 {m}
  -39.3152340660551, -7.38477248133975, 7.76335760700582, !- X,Y,Z Vertex 2 {m}
  -40.6717186806905, -6.02828786670445, 7.76335760700582, !- X,Y,Z Vertex 3 {m}
  -45.8192158725587, -11.1757850585727, 5.33680416; !- X,Y,Z Vertex 4 {m}

BuildingSurface:Detailed,
  Roof1:315,                              !- Name
  Roof,                                   !- Surface Type
  Roof1 construction,                     !- Construction Name
  attic - vented,                         !- Zone Name
  attic - vented 1,                       !- Space Name
  Outdoors,                               !- Outside Boundary Condition
  ,                                       !- Outside Boundary Condition Object
  SunExposed,                             !- Sun Exposure
  WindExposed,                            !- Wind Exposure
  ,                                       !- View Factor to Ground
  ,                                       !- Number of Vertices
  -12.5322696732081, 44.4627312579234, 5.33680416, !- X,Y,Z Vertex 1 {m}
  -7.38477248133975, 39.3152340660551, 7.76335760700582, !- X,Y,Z Vertex 2 {m}
  -6.02828786670445, 40.6717186806905, 7.76335760700582, !- X,Y,Z Vertex 3 {m}
  -11.1757850585727, 45.8192158725587, 5.33680416; !- X,Y,Z Vertex 4 {m}

BuildingSurface:Detailed,
  Roof1:45,                               !- Name
  Roof,                                   !- Surface Type
  Roof1 construction,                     !- Construction Name
  attic - vented,                         !- Zone Name
  attic - vented 1,                       !- Space Name
  Outdoors,                               !- Outside Boundary Condition
  ,                                       !- Outside Boundary Condition Object
  SunExposed,                             !- Sun Exposure
  WindExposed,                            !- Wind Exposure
  ,                                       !- View Factor to Ground
  ,                                       !- Number of Vertices
  17.941958697191, 39.0530422339404, 5.33680416, !- X,Y,Z Vertex 1 {m}
  12.7944615053227, 33.9055450420721, 7.76335760700582, !- X,Y,Z Vertex 2 {m}
  14.150946119958, 32.5490604274368, 7.76335760700582, !- X,Y,Z Vertex 3 {m}
  19.2984433118263, 37.6965576193051, 5.33680416; !- X,Y,Z Vertex 4 {m}

BuildingSurface:Detailed,
  Surface 1 Reversed,                     !- Name
  Floor,                                  !- Surface Type
  Floor1 construction Reversed,           !- Construction Name
  attic - vented,                         !- Zone Name
  attic - vented 1,                       !- Space Name
  Surface,                                !- Outside Boundary Condition
  Floor1,                                 !- Outside Boundary Condition Object
  NoSun,                                  !- Sun Exposure
  NoWind,                                 !- Wind Exposure
  ,                                       !- View Factor to Ground
  ,                                       !- Number of Vertices
  -4.7885282887501, -8.88178419700125e-16, 5.33680416, !- X,Y,Z Vertex 1 {m}
  0, 4.7885282887501, 5.33680416,         !- X,Y,Z Vertex 2 {m}
  4.7885282887501, 8.88178419700125e-16, 5.33680416, !- X,Y,Z Vertex 3 {m}
  0, -4.7885282887501, 5.33680416;        !- X,Y,Z Vertex 4 {m}

BuildingSurface:Detailed,
  Surface 1 Reversed 1,                   !- Name
  Floor,                                  !- Surface Type
  Floor2 construction Reversed,           !- Construction Name
  attic - vented,                         !- Zone Name
  attic - vented 1,                       !- Space Name
  Surface,                                !- Outside Boundary Condition
  Floor2,                                 !- Outside Boundary Condition Object
  NoSun,                                  !- Sun Exposure
  NoWind,                                 !- Wind Exposure
  ,                                       !- View Factor to Ground
  ,                                       !- Number of Vertices
  -2.23606793421667, -4.44089209850063e-16, 5.33680416, !- X,Y,Z Vertex 1 {m}
  0, 2.23606793421667, 5.33680416,        !- X,Y,Z Vertex 2 {m}
  2.23606793421667, 4.44089209850063e-16, 5.33680416, !- X,Y,Z Vertex 3 {m}
  0, -2.23606793421667, 5.33680416;       !- X,Y,Z Vertex 4 {m}

BuildingSurface:Detailed,
  surface Window16,                       !- Name
  Wall,                                   !- Surface Type
  AdiabaticWallConstruction,              !- Construction Name
  attic - vented,                         !- Zone Name
  attic - vented 1,                       !- Space Name
  Outdoors,                               !- Outside Boundary Condition
  ,                                       !- Outside Boundary Condition Object
  SunExposed,                             !- Sun Exposure
  WindExposed,                            !- Wind Exposure
  ,                                       !- View Factor to Ground
  ,                                       !- Number of Vertices
  -17.038632387096, 39.9563685440353, 0.458309902364995, !- X,Y,Z Vertex 1 {m}
  -17.038632387096, 39.9563685440353, 1.37609841763501, !- X,Y,Z Vertex 2 {m}
  -16.6418234961331, 40.3531774349982, 1.37609841763501, !- X,Y,Z Vertex 3 {m}
  -16.6418234961331, 40.3531774349982, 0.458309902364995; !- X,Y,Z Vertex 4 {m}

FenestrationSurface:Detailed,
  Window16,                               !- Name
  Window,                                 !- Surface Type
  WindowConstruction 15,                  !- Construction Name
  surface Window16,                       !- Building Surface Name
  ,                                       !- Outside Boundary Condition Object
  ,                                       !- View Factor to Ground
  ,                                       !- Frame and Divider Name
  ,                                       !- Multiplier
  ,                                       !- Number of Vertices
  -17.0374343660332, 39.9575665650981, 0.46000416, !- X,Y,Z Vertex 1 {m}
  -17.0374343660332, 39.9575665650981, 1.37440416, !- X,Y,Z Vertex 2 {m}
  -16.6430215171959, 40.3519794139354, 1.37440416, !- X,Y,Z Vertex 3 {m}
  -16.6430215171959, 40.3519794139354, 0.46000416; !- X,Y,Z Vertex 4 {m}

BuildingSurface:Detailed,
  Wall3:135,                              !- Name
  Wall,                                   !- Surface Type
  Wall3 construction,                     !- Construction Name
  attic - vented,                         !- Zone Name
  attic - vented 1,                       !- Space Name
  Outdoors,                               !- Outside Boundary Condition
  ,                                       !- Outside Boundary Condition Object
  SunExposed,                             !- Sun Exposure
  WindExposed,                            !- Wind Exposure
  ,                                       !- View Factor to Ground
  ,                                       !- Number of Vertices
  26.0737282250559, -30.9212727060754, 0.46000416, !- X,Y,Z Vertex 1 {m}
  26.0737282250559, -30.9212727060754, 5.33680416, !- X,Y,Z Vertex 2 {m}
  25.7852014701572, -31.2097994609741, 5.33680416, !- X,Y,Z Vertex 3 {m}
  25.7852014701572, -31.2097994609741, 0.46000416; !- X,Y,Z Vertex 4 {m}

BuildingSurface:Detailed,
  Wall3:225,                              !- Name
  Wall,                                   !- Surface Type
  Wall3 construction,                     !- Construction Name
  attic - vented,                         !- Zone Name
  attic - vented 1,                       !- Space Name
  Outdoors,                               !- Outside Boundary Condition
  ,                                       !- Outside Boundary Condition Object
  SunExposed,                             !- Sun Exposure
  WindExposed,                            !- Wind Exposure
  ,                                       !- View Factor to Ground
  ,                                       !- Number of Vertices
  -29.2470978615818, -27.7479030695495, 0.46000416, !- X,Y,Z Vertex 1 {m}
  -29.2470978615818, -27.7479030695495, 5.33680416, !- X,Y,Z Vertex 2 {m}
  -29.5356246164805, -27.4593763146508, 5.33680416, !- X,Y,Z Vertex 3 {m}
  -29.5356246164805, -27.4593763146508, 0.46000416; !- X,Y,Z Vertex 4 {m}

BuildingSurface:Detailed,
  Wall3:315,                              !- Name
  Wall,                                   !- Surface Type
  Wall3 construction,                     !- Construction Name
  attic - vented,                         !- Zone Name
  attic - vented 1,                       !- Space Name
  Outdoors,                               !- Outside Boundary Condition
  ,                                       !- Outside Boundary Condition Object
  SunExposed,                             !- Sun Exposure
  WindExposed,                            !- Wind Exposure
  ,                                       !- View Factor to Ground
  ,                                       !- Number of Vertices
  -27.0268158650087, 29.9681850661226, 0.46000416, !- X,Y,Z Vertex 1 {m}
  -27.0268158650087, 29.9681850661226, 5.33680416, !- X,Y,Z Vertex 2 {m}
  -26.73828911011, 30.2567118210213, 5.33680416, !- X,Y,Z Vertex 3 {m}
  -26.73828911011, 30.2567118210213, 0.46000416; !- X,Y,Z Vertex 4 {m}

BuildingSurface:Detailed,
  Wall3:45,                               !- Name
  Wall,                                   !- Surface Type
  Wall3 construction,                     !- Construction Name
  attic - vented,                         !- Zone Name
  attic - vented 1,                       !- Space Name
  Outdoors,                               !- Outside Boundary Condition
  ,                                       !- Outside Boundary Condition Object
  SunExposed,                             !- Sun Exposure
  WindExposed,                            !- Wind Exposure
  ,                                       !- View Factor to Ground
  ,                                       !- Number of Vertices
  0.656923695768448, 56.3380772353628, 0.46000416, !- X,Y,Z Vertex 1 {m}
  0.656923695768448, 56.3380772353628, 5.33680416, !- X,Y,Z Vertex 2 {m}
  0.945450450667149, 56.0495504804641, 5.33680416, !- X,Y,Z Vertex 3 {m}
  0.945450450667149, 56.0495504804641, 0.46000416; !- X,Y,Z Vertex 4 {m}

ZoneInfiltration:EffectiveLeakageArea,
  infil attic - vented 1,                 !- Name
  attic - vented 1,                       !- Zone or Space Name
  Always On Discrete,                     !- Schedule Name
  2311.44852236623,                       !- Effective Air Leakage Area {cm2}
  0.000507979950099128,                   !- Stack Coefficient
  1.5228018131204e-05;                    !- Wind Coefficient

ZoneMixing,
  whole house fan mix,                    !- Name
  attic - vented,                         !- Zone or Space Name
  Always On Continuous,                   !- Schedule Name
  Flow/Zone,                              !- Design Flow Rate Calculation Method
  0,                                      !- Design Flow Rate {m3/s}
  ,                                       !- Flow Rate per Floor Area {m3/s-m2}
  ,                                       !- Flow Rate per Person {m3/s-person}
  ,                                       !- Air Changes per Hour {1/hr}
  conditioned space;                      !- Source Zone or Space Name

Schedule:Constant,
  Always On Continuous,                   !- Name
  Fractional 1,                           !- Schedule Type Limits Name
  1;                                      !- Hourly Value

Zone,
  conditioned space,                      !- Name
  ,                                       !- Direction of Relative North {deg}
  0,                                      !- X Origin {m}
  0,                                      !- Y Origin {m}
  0,                                      !- Z Origin {m}
  ,                                       !- Type
  1,                                      !- Multiplier
  ,                                       !- Ceiling Height {m}
  466.800101215995,                       !- Volume {m3}
  ,                                       !- Floor Area {m2}
  ,                                       !- Zone Inside Convection Algorithm
  ,                                       !- Zone Outside Convection Algorithm
  Yes;                                    !- Part of Total Floor Area

Space,
  conditioned space 1,                    !- Name
  conditioned space,                      !- Zone Name
  ,                                       !- Ceiling Height {m}
  466.800101215995,                       !- Volume {m3}
  ;                                       !- Floor Area {m2}

Shading:Zone:Detailed,
  Window1 overhangs,                      !- Name
  surface Window12,                       !- Base Surface Name
  ,                                       !- Transmittance Schedule Name
  ,                                       !- Number of Vertices
  15.8741131851722, -41.1208877459592, 2.28575616, !- X,Y,Z Vertex 1 {m}
  14.190853977839, -42.8041469532924, 2.28575616, !- X,Y,Z Vertex 2 {m}
  15.6973817447095, -44.3106747201629, 2.28575616, !- X,Y,Z Vertex 3 {m}
  17.3806409520427, -42.6274155128297, 2.28575616; !- X,Y,Z Vertex 4 {m}

Shading:Zone:Detailed,
  Window10 overhangs,                     !- Name
  surface Window10,                       !- Base Surface Name
  ,                                       !- Transmittance Schedule Name
  ,                                       !- Number of Vertices
  -16.1283450783852, 40.8666558527462, 2.28575616, !- X,Y,Z Vertex 1 {m}
  -14.6930299001292, 42.3019710310022, 2.28575616, !- X,Y,Z Vertex 2 {m}
  -14.9839901984518, 42.5929313293248, 2.28575616, !- X,Y,Z Vertex 3 {m}
  -16.4193053767078, 41.1576161510688, 2.28575616; !- X,Y,Z Vertex 4 {m}

Shading:Zone:Detailed,
  Window12 overhangs,                     !- Name
  surface Window12,                       !- Base Surface Name
  ,                                       !- Transmittance Schedule Name
  ,                                       !- Number of Vertices
  17.1794454179534, -39.815555513178, 2.23698816, !- X,Y,Z Vertex 1 {m}
  15.744366444735, -41.2506344863964, 2.23698816, !- X,Y,Z Vertex 2 {m}
  16.0353267430576, -41.541594784719, 2.23698816, !- X,Y,Z Vertex 3 {m}
  17.470405716276, -40.1065158115006, 2.23698816; !- X,Y,Z Vertex 4 {m}

Shading:Zone:Detailed,
  Window14 overhangs,                     !- Name
  surface Window14,                       !- Base Surface Name
  ,                                       !- Transmittance Schedule Name
  ,                                       !- Number of Vertices
  -41.4420661849165, -15.5529347462149, 2.28575616, !- X,Y,Z Vertex 1 {m}
  -42.3019710310022, -14.6930299001292, 2.28575616, !- X,Y,Z Vertex 2 {m}
  -42.5929313293249, -14.9839901984518, 2.28575616, !- X,Y,Z Vertex 3 {m}
  -41.7330264832391, -15.8438950445376, 2.28575616; !- X,Y,Z Vertex 4 {m}

Shading:Zone:Detailed,
  Window15 overhangs,                     !- Name
  surface Window15,                       !- Base Surface Name
  ,                                       !- Transmittance Schedule Name
  ,                                       !- Number of Vertices
  -40.4618532687895, -16.5331476623419, 1.11837216, !- X,Y,Z Vertex 1 {m}
  -41.0696370030634, -15.9253639280679, 1.11837216, !- X,Y,Z Vertex 2 {m}
  -41.3605973013861, -16.2163242263905, 1.11837216, !- X,Y,Z Vertex 3 {m}
  -40.7528135671121, -16.8241079606645, 1.11837216; !- X,Y,Z Vertex 4 {m}

Shading:Zone:Detailed,
  Window17 overhangs,                     !- Name
  Roof2:45,                               !- Base Surface Name
  ,                                       !- Transmittance Schedule Name
  ,                                       !- Number of Vertices
  8.98334804933483, 48.0116528817965, 6.32130816, !- X,Y,Z Vertex 1 {m}
  16.7336682920623, 40.261332639069, 6.32130816, !- X,Y,Z Vertex 2 {m}
  17.024628590385, 40.5522929373916, 6.32130816, !- X,Y,Z Vertex 3 {m}
  9.27430834765743, 48.3026131801192, 6.32130816; !- X,Y,Z Vertex 4 {m}

Shading:Zone:Detailed,
  Window18 overhangs,                     !- Name
  Wall1:45,                               !- Base Surface Name
  ,                                       !- Transmittance Schedule Name
  ,                                       !- Number of Vertices
  7.89537205975504, 49.0996288713763, 5.96469216, !- X,Y,Z Vertex 1 {m}
  15.5379292290297, 41.4570717021016, 5.96469216, !- X,Y,Z Vertex 2 {m}
  15.8288895273524, 41.7480320004243, 5.96469216, !- X,Y,Z Vertex 3 {m}
  8.18633235807774, 49.390589169699, 5.96469216; !- X,Y,Z Vertex 4 {m}

Shading:Zone:Detailed,
  Window19 overhangs,                     !- Name
  Roof2:225,                              !- Base Surface Name
  ,                                       !- Transmittance Schedule Name
  ,                                       !- Number of Vertices
  -35.9103720984358, -21.0846288326955, 5.96469216, !- X,Y,Z Vertex 1 {m}
  -43.5529292677105, -13.4420716634208, 5.96469216, !- X,Y,Z Vertex 2 {m}
  -43.8438895660332, -13.7330319617435, 5.96469216, !- X,Y,Z Vertex 3 {m}
  -36.2013323967585, -21.3755891310182, 5.96469216; !- X,Y,Z Vertex 4 {m}

Shading:Zone:Detailed,
  Window3 overhangs,                      !- Name
  Wall1:45,                               !- Base Surface Name
  ,                                       !- Transmittance Schedule Name
  ,                                       !- Number of Vertices
  7.88319670840786, 49.1118042227235, 4.59614016, !- X,Y,Z Vertex 1 {m}
  12.6546204357259, 44.3403804954055, 4.59614016, !- X,Y,Z Vertex 2 {m}
  12.9455807340485, 44.6313407937281, 4.59614016, !- X,Y,Z Vertex 3 {m}
  8.17415700673046, 49.4027645210461, 4.59614016; !- X,Y,Z Vertex 4 {m}

Shading:Zone:Detailed,
  Window5 overhangs,                      !- Name
  surface Window5,                        !- Base Surface Name
  ,                                       !- Transmittance Schedule Name
  ,                                       !- Number of Vertices
  8.31899057745109, 48.6760103536803, 1.88037216, !- X,Y,Z Vertex 1 {m}
  9.17893990360469, 47.8160610275267, 1.88037216, !- X,Y,Z Vertex 2 {m}
  9.46990020192729, 48.1070213258493, 1.88037216, !- X,Y,Z Vertex 3 {m}
  8.60995087577369, 48.9669706520029, 1.88037216; !- X,Y,Z Vertex 4 {m}

Shading:Zone:Detailed,
  Window6 overhangs,                      !- Name
  Wall1:315,                              !- Base Surface Name
  ,                                       !- Transmittance Schedule Name
  ,                                       !- Number of Vertices
  -21.032921360376, 35.9620795707554, 4.64490816, !- X,Y,Z Vertex 1 {m}
  -16.8366717601906, 40.1583291709407, 4.64490816, !- X,Y,Z Vertex 2 {m}
  -17.1276320585132, 40.4492894692634, 4.64490816, !- X,Y,Z Vertex 3 {m}
  -21.3238816586986, 36.253039869078, 4.64490816; !- X,Y,Z Vertex 4 {m}

Shading:Zone:Detailed,
  Window7 overhangs,                      !- Name
  surface Window7,                        !- Base Surface Name
  ,                                       !- Transmittance Schedule Name
  ,                                       !- Number of Vertices
  18.480629710383, -38.5143712207483, 2.33452416, !- X,Y,Z Vertex 1 {m}
  17.4829062327966, -39.5120946983347, 2.33452416, !- X,Y,Z Vertex 2 {m}
  18.989433999667, -41.0186224652054, 2.33452416, !- X,Y,Z Vertex 3 {m}
  19.9871574772537, -40.0208989876188, 2.33452416; !- X,Y,Z Vertex 4 {m}

Shading:Zone:Detailed,
  Window8 overhangs,                      !- Name
  Wall1:225,                              !- Base Surface Name
  ,                                       !- Transmittance Schedule Name
  ,                                       !- Number of Vertices
  -36.4733263941534, -20.521674536978, 4.23952416, !- X,Y,Z Vertex 1 {m}
  -40.6696204744066, -16.3253804567248, 4.23952416, !- X,Y,Z Vertex 2 {m}
  -40.9605807727292, -16.6163407550474, 4.23952416, !- X,Y,Z Vertex 3 {m}
  -36.764286692476, -20.8126348353006, 4.23952416; !- X,Y,Z Vertex 4 {m}

Shading:Zone:Detailed,
  Window9 overhangs,                      !- Name
  Wall1:225,                              !- Base Surface Name
  ,                                       !- Transmittance Schedule Name
  ,                                       !- Number of Vertices
  -35.2409923662147, -21.7540085649167, 4.64490816, !- X,Y,Z Vertex 1 {m}
  -39.4372419664, -17.5577589647313, 4.64490816, !- X,Y,Z Vertex 2 {m}
  -39.7282022647227, -17.8487192630539, 4.64490816, !- X,Y,Z Vertex 3 {m}
  -35.5319526645373, -22.0449688632393, 4.64490816; !- X,Y,Z Vertex 4 {m}

BuildingSurface:Detailed,
  Floor1,                                 !- Name
  Ceiling,                                !- Surface Type
  Floor1 construction,                    !- Construction Name
  conditioned space,                      !- Zone Name
  conditioned space 1,                    !- Space Name
  Surface,                                !- Outside Boundary Condition
  Surface 1 Reversed,                     !- Outside Boundary Condition Object
  NoSun,                                  !- Sun Exposure
  NoWind,                                 !- Wind Exposure
  ,                                       !- View Factor to Ground
  ,                                       !- Number of Vertices
  0, -4.7885282887501, 5.33680416,        !- X,Y,Z Vertex 1 {m}
  4.7885282887501, 8.88178419700125e-16, 5.33680416, !- X,Y,Z Vertex 2 {m}
  0, 4.7885282887501, 5.33680416,         !- X,Y,Z Vertex 3 {m}
  -4.7885282887501, -8.88178419700125e-16, 5.33680416; !- X,Y,Z Vertex 4 {m}

BuildingSurface:Detailed,
  Floor2,                                 !- Name
  Ceiling,                                !- Surface Type
  Floor2 construction,                    !- Construction Name
  conditioned space,                      !- Zone Name
  conditioned space 1,                    !- Space Name
  Surface,                                !- Outside Boundary Condition
  Surface 1 Reversed 1,                   !- Outside Boundary Condition Object
  NoSun,                                  !- Sun Exposure
  NoWind,                                 !- Wind Exposure
  ,                                       !- View Factor to Ground
  ,                                       !- Number of Vertices
  0, -2.23606793421667, 5.33680416,       !- X,Y,Z Vertex 1 {m}
  2.23606793421667, 4.44089209850063e-16, 5.33680416, !- X,Y,Z Vertex 2 {m}
  0, 2.23606793421667, 5.33680416,        !- X,Y,Z Vertex 3 {m}
  -2.23606793421667, -4.44089209850063e-16, 5.33680416; !- X,Y,Z Vertex 4 {m}

BuildingSurface:Detailed,
  FoundationWall1,                        !- Name
  Wall,                                   !- Surface Type
  FoundationWall1 construction,           !- Construction Name
  conditioned space,                      !- Zone Name
  conditioned space 1,                    !- Space Name
  Foundation,                             !- Outside Boundary Condition
  Foundation Kiva 1,                      !- Outside Boundary Condition Object
  NoSun,                                  !- Sun Exposure
  NoWind,                                 !- Wind Exposure
  ,                                       !- View Factor to Ground
  ,                                       !- Number of Vertices
  31.1311520661674, 25.863848864964, -1.52000712, !- X,Y,Z Vertex 1 {m}
  31.1311520661674, 25.863848864964, 0.46000416, !- X,Y,Z Vertex 2 {m}
  54.408616044635, 2.58638488649642, 0.46000416, !- X,Y,Z Vertex 3 {m}
  54.408616044635, 2.58638488649642, -0.0997964454833484, !- X,Y,Z Vertex 4 {m}
  56.9950009311314, 1.59872115546023e-14, -0.0997964454833484, !- X,Y,Z Vertex 5 {m}
  56.9950009311314, 1.59872115546023e-14, -1.52000712; !- X,Y,Z Vertex 6 {m}

BuildingSurface:Detailed,
  inferred conditioned ceiling,           !- Name
  Ceiling,                                !- Surface Type
  AdiabaticFloorConstruction,             !- Construction Name
  conditioned space,                      !- Zone Name
  conditioned space 1,                    !- Space Name
  Adiabatic,                              !- Outside Boundary Condition
  ,                                       !- Outside Boundary Condition Object
  NoSun,                                  !- Sun Exposure
  NoWind,                                 !- Wind Exposure
  ,                                       !- View Factor to Ground
  ,                                       !- Number of Vertices
  8.88178419700125e-16, -8.15291515418234, 2.89840416, !- X,Y,Z Vertex 1 {m}
  8.15291515418234, 8.88178419700125e-16, 2.89840416, !- X,Y,Z Vertex 2 {m}
  -8.88178419700125e-16, 8.15291515418234, 2.89840416, !- X,Y,Z Vertex 3 {m}
  -8.15291515418234, -8.88178419700125e-16, 2.89840416; !- X,Y,Z Vertex 4 {m}

BuildingSurface:Detailed,
  inferred conditioned floor,             !- Name
  Floor,                                  !- Surface Type
  AdiabaticFloorConstruction,             !- Construction Name
  conditioned space,                      !- Zone Name
  conditioned space 1,                    !- Space Name
  Adiabatic,                              !- Outside Boundary Condition
  ,                                       !- Outside Boundary Condition Object
  NoSun,                                  !- Sun Exposure
  NoWind,                                 !- Wind Exposure
  ,                                       !- View Factor to Ground
  ,                                       !- Number of Vertices
  -8.15291515418234, -8.88178419700125e-16, 2.89840416, !- X,Y,Z Vertex 1 {m}
  -8.88178419700125e-16, 8.15291515418234, 2.89840416, !- X,Y,Z Vertex 2 {m}
  8.15291515418234, 8.88178419700125e-16, 2.89840416, !- X,Y,Z Vertex 3 {m}
  8.88178419700125e-16, -8.15291515418234, 2.89840416; !- X,Y,Z Vertex 4 {m}

BuildingSurface:Detailed,
  RimJoist1:135,                          !- Name
  Wall,                                   !- Surface Type