
Version,
  24.2;                                   !- Version Identifier

Timestep,
  1;                                      !- Number of Timesteps per Hour

Building,
  Building 1,                             !- Name
  ,                                       !- North Axis {deg}
  Suburbs,                                !- Terrain
  ,                                       !- Loads Convergence Tolerance Value {W}
  ,                                       !- Temperature Convergence Tolerance Value {deltaC}
  ,                                       !- Solar Distribution
  ,                                       !- Maximum Number of Warmup Days
  ;                                       !- Minimum Number of Warmup Days

Zone,
  attic - vented,                         !- Name
  ,                                       !- Direction of Relative North {deg}
  0,                                      !- X Origin {m}
  0,                                      !- Y Origin {m}
  0,                                      !- Z Origin {m}
  ,                                       !- Type
  1,                                      !- Multiplier
  ,                                       !- Ceiling Height {m}
  134.149856296348,                       !- Volume {m3}
  ,                                       !- Floor Area {m2}
  ,                                       !- Zone Inside Convection Algorithm
  ,                                       !- Zone Outside Convection Algorithm
  Yes;                                    !- Part of Total Floor Area

Space,
  attic - vented 1,                       !- Name
  attic - vented,                         !- Zone Name
  ,                                       !- Ceiling Height {m}
  134.149856296348,                       !- Volume {m3}
  ;                                       !- Floor Area {m2}

BuildingSurface:Detailed,
  Roof1:135,                              !- Name
  Roof,                                   !- Surface Type
  Roof1 construction,                     !- Construction Name
  attic - vented,                         !- Zone Name
  attic - vented 1,                       !- Space Name
  Outdoors,                               !- Outside Boundary Condition
  ,                                       !- Outside Boundary Condition Object
  SunExposed,                             !- Sun Exposure
  WindExposed,                            !- Wind Exposure
  ,                                       !- View Factor to Ground
  ,                                       !- Number of Vertices
  10.1423333311576, -61.0533761056704, 2.73841464, !- X,Y,Z Vertex 1 {m}
  4.54430680937454, -55.4553495838873, 7.35655090728419, !- X,Y,Z Vertex 2 {m}
  2.92409285301354, -57.0755635402483, 7.35655090728419, !- X,Y,Z Vertex 3 {m}
  8.52211937479674, -62.6735900620314, 2.73841464; !- X,Y,Z Vertex 4 {m}

BuildingSurface:Detailed,
  Roof1:225,                              !- Name
  Roof,                                   !- Surface Type
  Roof1 construction,                     !- Construction Name
  attic - vented,                         !- Zone Name
  attic - vented 1,                       !- Space Name
  Outdoors,                               !- Outside Boundary Condition
  ,                                       !- Outside Boundary Condition Object
  SunExposed,                             !- Sun Exposure
  WindExposed,                            !- Wind Exposure
  ,                                       !- View Factor to Ground
  ,                                       !- Number of Vertices
  -61.0533761056704, -10.1423333311576, 2.73841464, !- X,Y,Z Vertex 1 {m}
  -55.4553495838873, -4.54430680937455, 7.35655090728419, !- X,Y,Z Vertex 2 {m}
  -57.0755635402483, -2.92409285301355, 7.35655090728419, !- X,Y,Z Vertex 3 {m}
  -62.6735900620314, -8.52211937479674, 2.73841464; !- X,Y,Z Vertex 4 {m}

BuildingSurface:Detailed,
  Roof1:315,                              !- Name
  Roof,                                   !- Surface Type
  Roof1 construction,                     !- Construction Name
  attic - vented,                         !- Zone Name
  attic - vented 1,                       !- Space Name
  Outdoors,                               !- Outside Boundary Condition
  ,                                       !- Outside Boundary Condition Object
  SunExposed,                             !- Sun Exposure
  WindExposed,                            !- Wind Exposure
  ,                                       !- View Factor to Ground
  ,                                       !- Number of Vertices
  -10.1423333311576, 61.0533761056704, 2.73841464, !- X,Y,Z Vertex 1 {m}
  -4.54430680937455, 55.4553495838873, 7.35655090728419, !- X,Y,Z Vertex 2 {m}
  -2.92409285301355, 57.0755635402483, 7.35655090728419, !- X,Y,Z Vertex 3 {m}
  -8.52211937479674, 62.6735900620314, 2.73841464; !- X,Y,Z Vertex 4 {m}

BuildingSurface:Detailed,
  Roof1:45,                               !- Name
  Roof,                                   !- Surface Type
  Roof1 construction,                     !- Construction Name
  attic - vented,                         !- Zone Name
  attic - vented 1,                       !- Space Name
  Outdoors,                               !- Outside Boundary Condition
  ,                                       !- Outside Boundary Condition Object
  SunExposed,                             !- Sun Exposure
  WindExposed,                            !- Wind Exposure
  ,                                       !- View Factor to Ground
  ,                                       !- Number of Vertices
  23.9726844511482, 47.2230249856797, 2.73841464, !- X,Y,Z Vertex 1 {m}
  18.3746579293651, 41.6249984638967, 7.35655090728419, !- X,Y,Z Vertex 2 {m}
  19.9948718857261, 40.0047845075357, 7.35655090728419, !- X,Y,Z Vertex 3 {m}
  25.5928984075092, 45.6028110293189, 2.73841464; !- X,Y,Z Vertex 4 {m}

BuildingSurface:Detailed,
  Roof2:135,                              !- Name
  Roof,                                   !- Surface Type
  Roof2 construction,                     !- Construction Name
  attic - vented,                         !- Zone Name
  attic - vented 1,                       !- Space Name
  Outdoors,                               !- Outside Boundary Condition
  ,                                       !- Outside Boundary Condition Object
  SunExposed,                             !- Sun Exposure
  WindExposed,                            !- Wind Exposure
  ,                                       !- View Factor to Ground
  ,                                       !- Number of Vertices
  12.5051975573015, -58.6905118795265, 2.73841464, !- X,Y,Z Vertex 1 {m}
  5.88517591235098, -52.070490234576, 5.07894573837312, !- X,Y,Z Vertex 2 {m}
  4.17923538197558, -53.7764307649514, 5.07894573837312, !- X,Y,Z Vertex 3 {m}
  10.7992570269261, -60.3964524099019, 2.73841464; !- X,Y,Z Vertex 4 {m}

BuildingSurface:Detailed,
  Roof2:225,                              !- Name
  Roof,                                   !- Surface Type
  Roof2 construction,                     !- Construction Name
  attic - vented,                         !- Zone Name
  attic - vented 1,                       !- Space Name
  Outdoors,                               !- Outside Boundary Condition
  ,                                       !- Outside Boundary Condition Object
  SunExposed,                             !- Sun Exposure
  WindExposed,                            !- Wind Exposure
  ,                                       !- View Factor to Ground
  ,                                       !- Number of Vertices
  -58.6905118795265, -12.5051975573015, 2.73841464, !- X,Y,Z Vertex 1 {m}
  -52.070490234576, -5.88517591235098, 5.07894573837312, !- X,Y,Z Vertex 2 {m}
  -53.7764307649514, -4.17923538197558, 5.07894573837312, !- X,Y,Z Vertex 3 {m}
  -60.3964524099019, -10.7992570269261, 2.73841464; !- X,Y,Z Vertex 4 {m}

BuildingSurface:Detailed,
  Roof2:315,                              !- Name
  Roof,                                   !- Surface Type
  Roof2 construction,                     !- Construction Name
  attic - vented,                         !- Zone Name
  attic - vented 1,                       !- Space Name
  Outdoors,                               !- Outside Boundary Condition
  ,                                       !- Outside Boundary Condition Object
  SunExposed,                             !- Sun Exposure
  WindExposed,                            !- Wind Exposure
  ,                                       !- View Factor to Ground
  ,                                       !- Number of Vertices
  -12.5051975573015, 58.6905118795265, 2.73841464, !- X,Y,Z Vertex 1 {m}
  -5.88517591235098, 52.070490234576, 5.07894573837312, !- X,Y,Z Vertex 2 {m}
  -4.17923538197558, 53.7764307649514, 5.07894573837312, !- X,Y,Z Vertex 3 {m}
  -10.7992570269261, 60.3964524099019, 2.73841464; !- X,Y,Z Vertex 4 {m}

BuildingSurface:Detailed,
  Roof2:45,                               !- Name
  Roof,                                   !- Surface Type
  Roof2 construction,                     !- Construction Name
  attic - vented,                         !- Zone Name
  attic - vented 1,                       !- Space Name
  Outdoors,                               !- Outside Boundary Condition
  ,                                       !- Outside Boundary Condition Object
  SunExposed,                             !- Sun Exposure
  WindExposed,                            !- Wind Exposure
  ,                                       !- View Factor to Ground
  ,                                       !- Number of Vertices
  21.6098202250044, 49.5858892118236, 2.73841464, !- X,Y,Z Vertex 1 {m}
  14.9897985800539, 42.9658675668731, 5.07894573837312, !- X,Y,Z Vertex 2 {m}
  16.6957391104293, 41.2599270364977, 5.07894573837312, !- X,Y,Z Vertex 3 {m}
  23.3157607553798, 47.8799486814482, 2.73841464; !- X,Y,Z Vertex 4 {m}

BuildingSurface:Detailed,
  Surface 1 Reversed,                     !- Name
  Floor,                                  !- Surface Type
  Floor5 construction Reversed,           !- Construction Name
  attic - vented,                         !- Zone Name
  attic - vented 1,                       !- Space Name
  Surface,                                !- Outside Boundary Condition
  Floor5,                                 !- Outside Boundary Condition Object
  NoSun,                                  !- Sun Exposure
  NoWind,                                 !- Wind Exposure
  ,                                       !- View Factor to Ground
  ,                                       !- Number of Vertices
  -6.02328837054046, -8.88178419700125e-16, 2.73841464, !- X,Y,Z Vertex 1 {m}
  -8.88178419700125e-16, 6.02328837054046, 2.73841464, !- X,Y,Z Vertex 2 {m}
  6.02328837054046, 8.88178419700125e-16, 2.73841464, !- X,Y,Z Vertex 3 {m}
  8.88178419700125e-16, -6.02328837054046, 2.73841464; !- X,Y,Z Vertex 4 {m}

BuildingSurface:Detailed,
  Surface 1 Reversed 1,                   !- Name
  Floor,                                  !- Surface Type
  Floor6 construction Reversed,           !- Construction Name
  attic - vented,                         !- Zone Name
  attic - vented 1,                       !- Space Name
  Surface,                                !- Outside Boundary Condition
  Floor6,                                 !- Outside Boundary Condition Object
  NoSun,                                  !- Sun Exposure
  NoWind,                                 !- Wind Exposure
  ,                                       !- View Factor to Ground
  ,                                       !- Number of Vertices
  -6.74722184511759, 4.44089209850063e-16, 2.73841464, !- X,Y,Z Vertex 1 {m}
  -1.33226762955019e-15, 6.74722184511759, 2.73841464, !- X,Y,Z Vertex 2 {m}
  6.74722184511759, -4.44089209850063e-16, 2.73841464, !- X,Y,Z Vertex 3 {m}
  1.33226762955019e-15, -6.74722184511759, 2.73841464; !- X,Y,Z Vertex 4 {m}

BuildingSurface:Detailed,
  Wall7:135,                              !- Name
  Wall,                                   !- Surface Type
  Wall7 construction,                     !- Construction Name
  attic - vented,                         !- Zone Name
  attic - vented 1,                       !- Space Name
  Outdoors,                               !- Outside Boundary Condition
  ,                                       !- Outside Boundary Condition Object
  SunExposed,                             !- Sun Exposure
  WindExposed,                            !- Wind Exposure
  ,                                       !- View Factor to Ground
  ,                                       !- Number of Vertices
  34.6717563060467, -36.5239531307814, 0.30001464, !- X,Y,Z Vertex 1 {m}
  34.6717563060467, -36.5239531307814, 2.73841464, !- X,Y,Z Vertex 2 {m}
  33.8379254974554, -37.3577839393727, 2.73841464, !- X,Y,Z Vertex 3 {m}
  33.8379254974554, -37.3577839393727, 0.30001464; !- X,Y,Z Vertex 4 {m}

BuildingSurface:Detailed,
  Wall7:225,                              !- Name
  Wall,                                   !- Surface Type
  Wall7 construction,                     !- Construction Name
  attic - vented,                         !- Zone Name
  attic - vented 1,                       !- Space Name
  Outdoors,                               !- Outside Boundary Condition
  ,                                       !- Outside Boundary Condition Object
  SunExposed,                             !- Sun Exposure
  WindExposed,                            !- Wind Exposure
  ,                                       !- View Factor to Ground
  ,                                       !- Number of Vertices
  -28.9536905497234, -42.2420188871047, 0.30001464, !- X,Y,Z Vertex 1 {m}
  -28.9536905497234, -42.2420188871047, 2.73841464, !- X,Y,Z Vertex 2 {m}
  -29.7875213583147, -41.4081880785134, 2.73841464, !- X,Y,Z Vertex 3 {m}
  -29.7875213583147, -41.4081880785134, 0.30001464; !- X,Y,Z Vertex 4 {m}

BuildingSurface:Detailed,
  Wall7:315,                              !- Name
  Wall,                                   !- Surface Type
  Wall7 construction,                     !- Construction Name
  attic - vented,                         !- Zone Name
  attic - vented 1,                       !- Space Name
  Outdoors,                               !- Outside Boundary Condition
  ,                                       !- Outside Boundary Condition Object
  SunExposed,                             !- Sun Exposure
  WindExposed,                            !- Wind Exposure
  ,                                       !- View Factor to Ground
  ,                                       !- Number of Vertices
  -26.645895553916, 44.5498138829121, 0.30001464, !- X,Y,Z Vertex 1 {m}
  -26.645895553916, 44.5498138829121, 2.73841464, !- X,Y,Z Vertex 2 {m}
  -25.8120647453247, 45.3836446915034, 2.73841464, !- X,Y,Z Vertex 3 {m}
  -25.8120647453247, 45.3836446915034, 0.30001464; !- X,Y,Z Vertex 4 {m}

BuildingSurface:Detailed,
  Wall7:45,                               !- Name
  Wall,                                   !- Surface Type
  Wall7 construction,                     !- Construction Name
  attic - vented,                         !- Zone Name
  attic - vented 1,                       !- Space Name
  Outdoors,                               !- Outside Boundary Condition
  ,                                       !- Outside Boundary Condition Object
  SunExposed,                             !- Sun Exposure
  WindExposed,                            !- Wind Exposure
  ,                                       !- View Factor to Ground
  ,                                       !- Number of Vertices
  0.656923695768427, 70.5387857410597, 0.30001464, !- X,Y,Z Vertex 1 {m}
  0.656923695768427, 70.5387857410597, 2.73841464, !- X,Y,Z Vertex 2 {m}
  1.49075450435973, 69.7049549324684, 2.73841464, !- X,Y,Z Vertex 3 {m}
  1.49075450435973, 69.7049549324684, 0.30001464; !- X,Y,Z Vertex 4 {m}

ZoneInfiltration:EffectiveLeakageArea,
  infil attic - vented 1,                 !- Name
  attic - vented 1,                       !- Zone or Space Name
  Always On Discrete,                     !- Schedule Name
  5690.78298587269,                       !- Effective Air Leakage Area {cm2}
  0.000490699040098004,                   !- Stack Coefficient
  1.49667568754617e-05;                   !- Wind Coefficient

ZoneMixing,
  whole house fan mix,                    !- Name
  attic - vented,                         !- Zone or Space Name
  Always On Continuous,                   !- Schedule Name
  Flow/Zone,                              !- Design Flow Rate Calculation Method
  0,                                      !- Design Flow Rate {m3/s}
  ,                                       !- Flow Rate per Floor Area {m3/s-m2}
  ,                                       !- Flow Rate per Person {m3/s-person}
  ,                                       !- Air Changes per Hour {1/hr}
  conditioned space;                      !- Source Zone or Space Name

Schedule:Constant,
  Always On Continuous,                   !- Name
  Fractional 1,                           !- Schedule Type Limits Name
  1;                                      !- Hourly Value

Zone,
  conditioned space,                      !- Name
  ,                                       !- Direction of Relative North {deg}
  0,                                      !- X Origin {m}
  0,                                      !- Y Origin {m}
  0,                                      !- Z Origin {m}
  ,                                       !- Type
  1,                                      !- Multiplier
  ,                                       !- Ceiling Height {m}
  819.00022526337,                        !- Volume {m3}
  ,                                       !- Floor Area {m2}
  ,                                       !- Zone Inside Convection Algorithm
  ,                                       !- Zone Outside Convection Algorithm
  Yes;                                    !- Part of Total Floor Area

Space,
  conditioned space 1,                    !- Name
  conditioned space,                      !- Zone Name
  ,                                       !- Ceiling Height {m}
  819.00022526337,                        !- Volume {m3}
  ;                                       !- Floor Area {m2}

Shading:Zone:Detailed,
  Window1 overhangs,                      !- Name
  surface Window1,                        !- Base Surface Name
  ,                                       !- Transmittance Schedule Name
  ,                                       !- Number of Vertices
  14.1105150818585, -57.0851943549696, 1.76610264, !- X,Y,Z Vertex 1 {m}
  12.9509056291024, -58.2448038077256, 1.76610264, !- X,Y,Z Vertex 2 {m}
  13.16212125307, -58.4560194316932, 1.76610264, !- X,Y,Z Vertex 3 {m}
  14.321730705826, -57.2964099789372, 1.76610264; !- X,Y,Z Vertex 4 {m}

Shading:Zone:Detailed,
  Window10 overhangs,                     !- Name
  surface Window10,                       !- Base Surface Name
  ,                                       !- Transmittance Schedule Name
  ,                                       !- Number of Vertices
  -57.1584244131552, -14.0372850236729, 2.45190264, !- X,Y,Z Vertex 1 {m}
  -58.2448038077257, -12.9509056291024, 2.45190264, !- X,Y,Z Vertex 2 {m}
  -58.675856101537, -13.3819579229137, 2.45190264, !- X,Y,Z Vertex 3 {m}
  -57.5894767069665, -14.4683373174842, 2.45190264; !- X,Y,Z Vertex 4 {m}

Shading:Zone:Detailed,
  Window11 overhangs,                     !- Name
  surface Window12,                       !- Base Surface Name
  ,                                       !- Transmittance Schedule Name
  ,                                       !- Number of Vertices
  -54.3245590194736, -16.8711504173544, 3.98199864, !- X,Y,Z Vertex 1 {m}
  -58.0058732227882, -13.1898362140398, 3.98199864, !- X,Y,Z Vertex 2 {m}
  -58.4369255165996, -13.6208885078512, 3.98199864, !- X,Y,Z Vertex 3 {m}
  -54.755611313285, -17.3022027111658, 3.98199864; !- X,Y,Z Vertex 4 {m}

Shading:Zone:Detailed,
  Window12 overhangs,                     !- Name
  surface Window13,                       !- Base Surface Name
  ,                                       !- Transmittance Schedule Name
  ,                                       !- Number of Vertices
  -53.1092949890537, -18.0864144477745, 3.83264664, !- X,Y,Z Vertex 1 {m}
  -56.1483412745894, -15.0473681622388, 3.83264664, !- X,Y,Z Vertex 2 {m}
  -56.5793935684007, -15.4784204560501, 3.83264664, !- X,Y,Z Vertex 3 {m}
  -53.540347282865, -18.5174667415857, 3.83264664; !- X,Y,Z Vertex 4 {m}

Shading:Zone:Detailed,
  Window13 overhangs,                     !- Name
  surface Window12,                       !- Base Surface Name
  ,                                       !- Transmittance Schedule Name
  ,                                       !- Number of Vertices
  -51.3573708528384, -19.8383385839896, 4.44224664, !- X,Y,Z Vertex 1 {m}
  -55.2585217259968, -15.9371877108313, 4.44224664, !- X,Y,Z Vertex 2 {m}
  -55.6895740198081, -16.3682400046426, 4.44224664, !- X,Y,Z Vertex 3 {m}
  -51.7884231466498, -20.2693908778009, 4.44224664; !- X,Y,Z Vertex 4 {m}

Shading:Zone:Detailed,
  Window14 overhangs,                     !- Name
  surface Window13,                       !- Base Surface Name
  ,                                       !- Transmittance Schedule Name
  ,                                       !- Number of Vertices
  -50.9159733039757, -20.2797361328524, 2.28426264, !- X,Y,Z Vertex 1 {m}
  -53.0755452959704, -18.1201641408577, 2.28426264, !- X,Y,Z Vertex 2 {m}
  -53.5065975897817, -18.551216434669, 2.28426264, !- X,Y,Z Vertex 3 {m}
  -51.347025597787, -20.7107884266637, 2.28426264; !- X,Y,Z Vertex 4 {m}

Shading:Zone:Detailed,
  Window15 overhangs,                     !- Name
  surface Window17,                       !- Base Surface Name
  ,                                       !- Transmittance Schedule Name
  ,                                       !- Number of Vertices
  -49.3664658898883, -21.8292435469398, 2.60735064, !- X,Y,Z Vertex 1 {m}
  -51.5522064896413, -19.6435029471869, 2.60735064, !- X,Y,Z Vertex 2 {m}
  -51.9832587834525, -20.0745552409982, 2.60735064, !- X,Y,Z Vertex 3 {m}
  -49.7975181836997, -22.2602958407511, 2.60735064; !- X,Y,Z Vertex 4 {m}

Shading:Zone:Detailed,
  Window17 overhangs,                     !- Name
  surface Window17,                       !- Base Surface Name
  ,                                       !- Transmittance Schedule Name
  ,                                       !- Number of Vertices
  -48.8020657022246, -22.3936437346035, 2.14710264, !- X,Y,Z Vertex 1 {m}
  -49.4574179238825, -21.7382915129456, 2.14710264, !- X,Y,Z Vertex 2 {m}
  -49.8884702176938, -22.1693438067569, 2.14710264, !- X,Y,Z Vertex 3 {m}
  -49.2331179960359, -22.8246960284148, 2.14710264; !- X,Y,Z Vertex 4 {m}

Shading:Zone:Detailed,
  Window18 overhangs,                     !- Name
  Wall1:225,                              !- Base Surface Name
  ,                                       !- Transmittance Schedule Name
  ,                                       !- Number of Vertices
  -43.9226840544158, -27.2730253824123, 5.80775064, !- X,Y,Z Vertex 1 {m}
  -51.6948576459923, -19.5008517908358, 5.80775064, !- X,Y,Z Vertex 2 {m}
  -52.1259099398036, -19.9319040846471, 5.80775064, !- X,Y,Z Vertex 3 {m}
  -44.3537363482271, -27.7040776762236, 5.80775064; !- X,Y,Z Vertex 4 {m}

Shading:Zone:Detailed,
  Window19 overhangs,                     !- Name
  surface Window6,                        !- Base Surface Name
  ,                                       !- Transmittance Schedule Name
  ,                                       !- Number of Vertices
  17.5925824520346, -53.6031269847935, 3.78387864, !- X,Y,Z Vertex 1 {m}
  12.5065694965865, -58.6891399402416, 3.78387864, !- X,Y,Z Vertex 2 {m}
  12.9376217903978, -59.1201922340529, 3.78387864, !- X,Y,Z Vertex 3 {m}
  18.0236347458459, -54.0341792786048, 3.78387864; !- X,Y,Z Vertex 4 {m}

Shading:Zone:Detailed,
  Window2 overhangs,                      !- Name
  surface Window2,                        !- Base Surface Name
  ,                                       !- Transmittance Schedule Name
  ,                                       !- Number of Vertices
  17.2042273140422, 53.9914821227859, 1.67466264, !- X,Y,Z Vertex 1 {m}
  18.2861685715086, 52.9095408653194, 1.67466264, !- X,Y,Z Vertex 2 {m}
  19.6870885263954, 54.3104608202062, 1.67466264, !- X,Y,Z Vertex 3 {m}
  18.605147268929, 55.3924020776726, 1.67466264; !- X,Y,Z Vertex 4 {m}

Shading:Zone:Detailed,
  Window20 overhangs,                     !- Name
  Wall1:225,                              !- Base Surface Name
  ,                                       !- Transmittance Schedule Name
  ,                                       !- Number of Vertices
  -42.5811954345382, -28.6145140022899, 3.78387864, !- X,Y,Z Vertex 1 {m}
  -48.6539140312888, -22.5417954055392, 3.78387864, !- X,Y,Z Vertex 2 {m}
  -49.0849663251002, -22.9728476993506, 3.78387864, !- X,Y,Z Vertex 3 {m}
  -43.0122477283496, -29.0455662961012, 3.78387864; !- X,Y,Z Vertex 4 {m}

Shading:Zone:Detailed,
  Window3 overhangs,                      !- Name
  surface Window8,                        !- Base Surface Name
  ,                                       !- Transmittance Schedule Name
  ,                                       !- Number of Vertices
  16.3856590080946, 54.8100504287335, 1.67466264, !- X,Y,Z Vertex 1 {m}
  17.1981925819289, 53.9975168548992, 1.67466264, !- X,Y,Z Vertex 2 {m}
  18.5991125368157, 55.398436809786, 1.67466264, !- X,Y,Z Vertex 3 {m}
  17.7865789629814, 56.2109703836203, 1.67466264; !- X,Y,Z Vertex 4 {m}

Shading:Zone:Detailed,
  Window4 overhangs,                      !- Name
  surface Window6,                        !- Base Surface Name
  ,                                       !- Transmittance Schedule Name
  ,                                       !- Number of Vertices
  17.245065343087, -53.9506440937411, 2.38484664, !- X,Y,Z Vertex 1 {m}
  15.8744080089027, -55.3213014279254, 2.38484664, !- X,Y,Z Vertex 2 {m}
  16.305460302714, -55.7523537217367, 2.38484664, !- X,Y,Z Vertex 3 {m}
  17.6761176368983, -54.3816963875524, 2.38484664; !- X,Y,Z Vertex 4 {m}

Shading:Zone:Detailed,
  Window6 overhangs,                      !- Name
  surface Window6,                        !- Base Surface Name
  ,                                       !- Transmittance Schedule Name
  ,                                       !- Number of Vertices
  18.8287921358605, -52.3669173009676, 2.37570264, !- X,Y,Z Vertex 1 {m}
  17.3653289330604, -53.8303805037677, 2.37570264, !- X,Y,Z Vertex 2 {m}
  17.4709367450441, -53.9359883157515, 2.37570264, !- X,Y,Z Vertex 3 {m}
  18.9343999478443, -52.4725251129513, 2.37570264; !- X,Y,Z Vertex 4 {m}

Shading:Zone:Detailed,
  Window7 overhangs,                      !- Name
  surface Window7,                        !- Base Surface Name
  ,                                       !- Transmittance Schedule Name
  ,                                       !- Number of Vertices
  -42.8831729223703, -28.3125365144578, 1.84230264, !- X,Y,Z Vertex 1 {m}
  -44.1851410198101, -27.0105684170179, 1.84230264, !- X,Y,Z Vertex 2 {m}
  -44.6161933136215, -27.4416207108293, 1.84230264, !- X,Y,Z Vertex 3 {m}
  -43.3142252161817, -28.7435888082691, 1.84230264; !- X,Y,Z Vertex 4 {m}

Shading:Zone:Detailed,
  Window8 overhangs,                      !- Name
  surface Window8,                        !- Base Surface Name
  ,                                       !- Transmittance Schedule Name
  ,                                       !- Number of Vertices
  14.5864060684153, 56.6093033684127, 2.37570264, !- X,Y,Z Vertex 1 {m}
  16.2653954181212, 54.9303140187068, 2.37570264, !- X,Y,Z Vertex 2 {m}
  16.6964477119325, 55.3613663125182, 2.37570264, !- X,Y,Z Vertex 3 {m}
  15.0174583622267, 57.040355662224, 2.37570264; !- X,Y,Z Vertex 4 {m}

Shading:Zone:Detailed,
  Window9 overhangs,                      !- Name
  surface Window9,                        !- Base Surface Name
  ,                                       !- Transmittance Schedule Name
  ,                                       !- Number of Vertices
  20.7422739333998, -50.4534355034283, 2.37570264, !- X,Y,Z Vertex 1 {m}
  19.0632845836939, -52.1324248531342, 2.37570264, !- X,Y,Z Vertex 2 {m}
  19.1688923956777, -52.2380326651179, 2.37570264, !- X,Y,Z Vertex 3 {m}
  20.8478817453835, -50.5590433154121, 2.37570264; !- X,Y,Z Vertex 4 {m}

BuildingSurface:Detailed,
  Floor1,                                 !- Name
  Floor,                                  !- Surface Type
  Floor1 construction,                    !- Construction Name
  conditioned space,                      !- Zone Name
  conditioned space 1,                    !- Space Name
  Outdoors,                               !- Outside Boundary Condition
  ,                                       !- Outside Boundary Condition Object
  NoSun,                                  !- Sun Exposure
  WindExposed,                            !- Wind Exposure
  ,                                       !- View Factor to Ground
  ,                                       !- Number of Vertices
  -1.0099878114116, 0, 0.30001464,        !- X,Y,Z Vertex 1 {m}
  0, 1.0099878114116, 0.30001464,         !- X,Y,Z Vertex 2 {m}
  1.0099878114116, 0, 0.30001464,         !- X,Y,Z Vertex 3 {m}
  0, -1.0099878114116, 0.30001464;        !- X,Y,Z Vertex 4 {m}

BuildingSurface:Detailed,
  Floor2,                                 !- Name
  Floor,                                  !- Surface Type
  Floor2 construction,                    !- Construction Name
  conditioned space,                      !- Zone Name
  conditioned space 1,                    !- Space Name
  Outdoors,                               !- Outside Boundary Condition
  ,                                       !- Outside Boundary Condition Object