
Version,
  24.2;                                   !- Version Identifier

Timestep,
  1;                                      !- Number of Timesteps per Hour

Building,
  Building 1,                             !- Name
  ,                                       !- North Axis {deg}
  Suburbs,                                !- Terrain
  ,                                       !- Loads Convergence Tolerance Value {W}
  ,                                       !- Temperature Convergence Tolerance Value {deltaC}
  ,                                       !- Solar Distribution
  ,                                       !- Maximum Number of Warmup Days
  ;                                       !- Minimum Number of Warmup Days

Zone,
  attic - vented,                         !- Name
  ,                                       !- Direction of Relative North {deg}
  0,                                      !- X Origin {m}
  0,                                      !- Y Origin {m}
  0,                                      !- Z Origin {m}
  ,                                       !- Type
  1,                                      !- Multiplier
  ,                                       !- Ceiling Height {m}
  21.9035550123187,                       !- Volume {m3}
  ,                                       !- Floor Area {m2}
  ,                                       !- Zone Inside Convection Algorithm
  ,                                       !- Zone Outside Convection Algorithm
  Yes;                                    !- Part of Total Floor Area

Space,
  attic - vented 1,                       !- Name
  attic - vented,                         !- Zone Name
  ,                                       !- Ceiling Height {m}
  21.9035550123187,                       !- Volume {m3}
  ;                                       !- Floor Area {m2}

BuildingSurface:Detailed,
  Roof1:135,                              !- Name
  Roof,                                   !- Surface Type
  Roof1 construction,                     !- Construction Name
  attic - vented,                         !- Zone Name
  attic - vented 1,                       !- Space Name
  Outdoors,                               !- Outside Boundary Condition
  ,                                       !- Outside Boundary Condition Object
  SunExposed,                             !- Sun Exposure
  WindExposed,                            !- Wind Exposure
  ,                                       !- View Factor to Ground
  ,                                       !- Number of Vertices
  10.7240948395902, -40.016253991322, 5.57680368, !- X,Y,Z Vertex 1 {m}
  5.58443651364217, -34.8765956653741, 7.99966185017313, !- X,Y,Z Vertex 2 {m}
  4.23001762155527, -36.231014557461, 7.99966185017313, !- X,Y,Z Vertex 3 {m}
  9.36967594750317, -41.370672883409, 5.57680368; !- X,Y,Z Vertex 4 {m}

BuildingSurface:Detailed,
  Roof1:225,                              !- Name
  Roof,                                   !- Surface Type
  Roof1 construction,                     !- Construction Name
  attic - vented,                         !- Zone Name
  attic - vented 1,                       !- Space Name
  Outdoors,                               !- Outside Boundary Condition
  ,                                       !- Outside Boundary Condition Object
  SunExposed,                             !- Sun Exposure
  WindExposed,                            !- Wind Exposure
  ,                                       !- View Factor to Ground
  ,                                       !- Number of Vertices
  -40.016253991322, -10.7240948395902, 5.57680368, !- X,Y,Z Vertex 1 {m}
  -34.8765956653741, -5.58443651364228, 7.99966185017313, !- X,Y,Z Vertex 2 {m}
  -36.231014557461, -4.23001762155527, 7.99966185017313, !- X,Y,Z Vertex 3 {m}
  -41.370672883409, -9.36967594750317, 5.57680368; !- X,Y,Z Vertex 4 {m}

BuildingSurface:Detailed,
  Roof1:315,                              !- Name
  Roof,                                   !- Surface Type
  Roof1 construction,                     !- Construction Name
  attic - vented,                         !- Zone Name
  attic - vented 1,                       !- Space Name
  Outdoors,                               !- Outside Boundary Condition
  ,                                       !- Outside Boundary Condition Object
  SunExposed,                             !- Sun Exposure
  WindExposed,                            !- Wind Exposure
  ,                                       !- View Factor to Ground
  ,                                       !- Number of Vertices
  -10.7240948395902, 40.016253991322, 5.57680368, !- X,Y,Z Vertex 1 {m}
  -5.58443651364228, 34.8765956653741, 7.99966185017313, !- X,Y,Z Vertex 2 {m}
  -4.23001762155527, 36.231014557461, 7.99966185017313, !- X,Y,Z Vertex 3 {m}
  -9.36967594750317, 41.370672883409, 5.57680368; !- X,Y,Z Vertex 4 {m}

BuildingSurface:Detailed,
  Roof1:45,                               !- Name
  Roof,                                   !- Surface Type
  Roof1 construction,                     !- Construction Name
  attic - vented,                         !- Zone Name
  attic - vented 1,                       !- Space Name
  Outdoors,                               !- Outside Boundary Condition
  ,                                       !- Outside Boundary Condition Object
  SunExposed,                             !- Sun Exposure
  WindExposed,                            !- Wind Exposure
  ,                                       !- View Factor to Ground
  ,                                       !- Number of Vertices
  18.2380480827899, 32.5023007481223, 5.57680368, !- X,Y,Z Vertex 1 {m}
  13.098389756842, 27.3626424221743, 7.99966185017313, !- X,Y,Z Vertex 2 {m}
  14.4528086489289, 26.0082235300874, 7.99966185017313, !- X,Y,Z Vertex 3 {m}
  19.5924669748769, 31.1478818560353, 5.57680368; !- X,Y,Z Vertex 4 {m}

BuildingSurface:Detailed,
  Surface 1 Reversed,                     !- Name
  Floor,                                  !- Surface Type
  Floor1 construction Reversed,           !- Construction Name
  attic - vented,                         !- Zone Name
  attic - vented 1,                       !- Space Name
  Surface,                                !- Outside Boundary Condition
  Floor1,                                 !- Outside Boundary Condition Object
  NoSun,                                  !- Sun Exposure
  NoWind,                                 !- Wind Exposure
  ,                                       !- View Factor to Ground
  ,                                       !- Number of Vertices
  -5.27683630048763, -8.88178419700125e-16, 5.57680368, !- X,Y,Z Vertex 1 {m}
  4.44089209850063e-16, 5.27683630048763, 5.57680368, !- X,Y,Z Vertex 2 {m}
  5.27683630048763, 8.88178419700125e-16, 5.57680368, !- X,Y,Z Vertex 3 {m}
  -4.44089209850063e-16, -5.27683630048763, 5.57680368; !- X,Y,Z Vertex 4 {m}

BuildingSurface:Detailed,
  Wall3:135,                              !- Name
  Wall,                                   !- Surface Type
  Wall3 construction,                     !- Construction Name
  attic - vented,                         !- Zone Name
  attic - vented 1,                       !- Space Name
  Outdoors,                               !- Outside Boundary Condition
  ,                                       !- Outside Boundary Condition Object
  SunExposed,                             !- Sun Exposure
  WindExposed,                            !- Wind Exposure
  ,                                       !- View Factor to Ground
  ,                                       !- Number of Vertices
  17.5496046979198, -33.1907441329925, 0.70000368, !- X,Y,Z Vertex 1 {m}
  17.5496046979198, -33.1907441329925, 5.57680368, !- X,Y,Z Vertex 2 {m}
  17.2729780467763, -33.467370784136, 5.57680368, !- X,Y,Z Vertex 3 {m}
  17.2729780467763, -33.467370784136, 0.70000368; !- X,Y,Z Vertex 4 {m}

BuildingSurface:Detailed,
  Wall3:225,                              !- Name
  Wall,                                   !- Surface Type
  Wall3 construction,                     !- Construction Name
  attic - vented,                         !- Zone Name
  attic - vented 1,                       !- Space Name
  Outdoors,                               !- Outside Boundary Condition
  ,                                       !- Outside Boundary Condition Object
  SunExposed,                             !- Sun Exposure
  WindExposed,                            !- Wind Exposure
  ,                                       !- View Factor to Ground
  ,                                       !- Number of Vertices
  -27.5581121972865, -23.1822366336258, 0.70000368, !- X,Y,Z Vertex 1 {m}
  -27.5581121972865, -23.1822366336258, 5.57680368, !- X,Y,Z Vertex 2 {m}
  -27.83473884843, -22.9056099824823, 5.57680368, !- X,Y,Z Vertex 3 {m}
  -27.83473884843, -22.9056099824823, 0.70000368; !- X,Y,Z Vertex 4 {m}

BuildingSurface:Detailed,
  Wall3:315,                              !- Name
  Wall,                                   !- Surface Type
  Wall3 construction,                     !- Construction Name
  attic - vented,                         !- Zone Name
  attic - vented 1,                       !- Space Name
  Outdoors,                               !- Outside Boundary Condition
  ,                                       !- Outside Boundary Condition Object
  SunExposed,                             !- Sun Exposure
  WindExposed,                            !- Wind Exposure
  ,                                       !- View Factor to Ground
  ,                                       !- Number of Vertices
  -20.5984176325181, 30.1419311983942, 0.70000368, !- X,Y,Z Vertex 1 {m}
  -20.5984176325181, 30.1419311983942, 5.57680368, !- X,Y,Z Vertex 2 {m}
  -20.3217909813746, 30.4185578495376, 5.57680368, !- X,Y,Z Vertex 3 {m}
  -20.3217909813746, 30.4185578495376, 0.70000368; !- X,Y,Z Vertex 4 {m}

BuildingSurface:Detailed,
  Wall3:45,                               !- Name
  Wall,                                   !- Surface Type
  Wall3 construction,                     !- Construction Name
  attic - vented,                         !- Zone Name
  attic - vented 1,                       !- Space Name
  Outdoors,                               !- Outside Boundary Condition
  ,                                       !- Outside Boundary Condition Object
  SunExposed,                             !- Sun Exposure
  WindExposed,                            !- Wind Exposure
  ,                                       !- View Factor to Ground
  ,                                       !- Number of Vertices
  0.656923695768477, 50.0834251351438, 0.70000368, !- X,Y,Z Vertex 1 {m}
  0.656923695768477, 50.0834251351438, 5.57680368, !- X,Y,Z Vertex 2 {m}
  0.933550346911975, 49.8067984840003, 5.57680368, !- X,Y,Z Vertex 3 {m}
  0.933550346911975, 49.8067984840003, 0.70000368; !- X,Y,Z Vertex 4 {m}

ZoneInfiltration:EffectiveLeakageArea,
  infil attic - vented 1,                 !- Name
  attic - vented 1,                       !- Zone or Space Name
  Always On Discrete,                     !- Schedule Name
  1965.52950650428,                       !- Effective Air Leakage Area {cm2}
  0.000507605218105775,                   !- Stack Coefficient
  1.52224003126559e-05;                   !- Wind Coefficient

ZoneMixing,
  whole house fan mix,                    !- Name
  attic - vented,                         !- Zone or Space Name
  Always On Continuous,                   !- Schedule Name
  Flow/Zone,                              !- Design Flow Rate Calculation Method
  0,                                      !- Design Flow Rate {m3/s}
  ,                                       !- Flow Rate per Floor Area {m3/s-m2}
  ,                                       !- Flow Rate per Person {m3/s-person}
  ,                                       !- Air Changes per Hour {1/hr}
  conditioned space;                      !- Source Zone or Space Name

Schedule:Constant,
  Always On Continuous,                   !- Name
  Fractional 1,                           !- Schedule Type Limits Name
  1;                                      !- Hourly Value

Zone,
  conditioned space,                      !- Name
  ,                                       !- Direction of Relative North {deg}
  0,                                      !- X Origin {m}
  0,                                      !- Y Origin {m}
  0,                                      !- Z Origin {m}
  ,                                       !- Type
  1,                                      !- Multiplier
  ,                                       !- Ceiling Height {m}
  407.100259883013,                       !- Volume {m3}
  ,                                       !- Floor Area {m2}
  ,                                       !- Zone Inside Convection Algorithm
  ,                                       !- Zone Outside Convection Algorithm
  Yes;                                    !- Part of Total Floor Area

Space,
  conditioned space 1,                    !- Name
  conditioned space,                      !- Zone Name
  ,                                       !- Ceiling Height {m}
  407.100259883013,                       !- Volume {m3}
  ;                                       !- Floor Area {m2}

Shading:Zone:Detailed,
  Window10 overhangs,                     !- Name
  surface Window10,                       !- Base Surface Name
  ,                                       !- Transmittance Schedule Name
  ,                                       !- Number of Vertices
  14.1637636128021, 36.5765852181101, 2.12037168, !- X,Y,Z Vertex 1 {m}
  14.9698314022293, 35.7705174286829, 2.12037168, !- X,Y,Z Vertex 2 {m}
  15.2607917005519, 36.0614777270056, 2.12037168, !- X,Y,Z Vertex 3 {m}
  14.4547239111248, 36.8675455164327, 2.12037168; !- X,Y,Z Vertex 4 {m}

Shading:Zone:Detailed,
  Window11 overhangs,                     !- Name
  surface Window11,                       !- Base Surface Name
  ,                                       !- Transmittance Schedule Name
  ,                                       !- Number of Vertices
  12.5540388060526, 38.1863100248596, 2.24838768, !- X,Y,Z Vertex 1 {m}
  13.7913344309492, 36.949014399963, 2.24838768, !- X,Y,Z Vertex 2 {m}
  14.0822947292719, 37.2399746982857, 2.24838768, !- X,Y,Z Vertex 3 {m}
  12.8449991043753, 38.4772703231823, 2.24838768; !- X,Y,Z Vertex 4 {m}

Shading:Zone:Detailed,
  Window12 overhangs,                     !- Name
  surface Window12,                       !- Base Surface Name
  ,                                       !- Transmittance Schedule Name
  ,                                       !- Number of Vertices
  11.2505366695672, 39.489812161345, 2.24838768, !- X,Y,Z Vertex 1 {m}
  12.1816096241996, 38.5587392067126, 2.24838768, !- X,Y,Z Vertex 2 {m}
  12.4725699225223, 38.8496995050352, 2.24838768, !- X,Y,Z Vertex 3 {m}
  11.5414969678898, 39.7807724596677, 2.24838768; !- X,Y,Z Vertex 4 {m}

Shading:Zone:Detailed,
  Window14 overhangs,                     !- Name
  surface Window14,                       !- Base Surface Name
  ,                                       !- Transmittance Schedule Name
  ,                                       !- Number of Vertices
  -37.5660289523787, -13.1743198785336, 2.06855568, !- X,Y,Z Vertex 1 {m}
  -39.5015775525114, -11.2387712784009, 2.06855568, !- X,Y,Z Vertex 2 {m}
  -39.792537850834, -11.5297315767235, 2.06855568, !- X,Y,Z Vertex 3 {m}
  -37.8569892507013, -13.4652801768562, 2.06855568; !- X,Y,Z Vertex 4 {m}

Shading:Zone:Detailed,
  Window16 overhangs,                     !- Name
  Wall1:315,                              !- Base Surface Name
  ,                                       !- Transmittance Schedule Name
  ,                                       !- Number of Vertices
  -15.2790127782324, 35.4613360526798, 5.95780368, !- X,Y,Z Vertex 1 {m}
  -7.90242652430132, 42.837922306611, 5.95780368, !- X,Y,Z Vertex 2 {m}
  -8.19338682262392, 43.1288826049336, 5.95780368, !- X,Y,Z Vertex 3 {m}
  -15.569973076555, 35.7522963510025, 5.95780368; !- X,Y,Z Vertex 4 {m}

Shading:Zone:Detailed,
  Window3 overhangs,                      !- Name
  Wall1:45,                               !- Base Surface Name
  ,                                       !- Transmittance Schedule Name
  ,                                       !- Number of Vertices
  8.02221049955606, 42.7181383313561, 4.53743568, !- X,Y,Z Vertex 1 {m}
  12.4967088509757, 38.2436399799365, 4.53743568, !- X,Y,Z Vertex 2 {m}
  12.7876691492984, 38.5346002782592, 4.53743568, !- X,Y,Z Vertex 3 {m}
  8.31317079787876, 43.0090986296788, 4.53743568; !- X,Y,Z Vertex 4 {m}

Shading:Zone:Detailed,
  Window4 overhangs,                      !- Name
  Wall1:45,                               !- Base Surface Name
  ,                                       !- Transmittance Schedule Name
  ,                                       !- Number of Vertices
  7.02508707036425, 43.715261760548, 4.18081968, !- X,Y,Z Vertex 1 {m}
  10.8869840442261, 39.8533647866862, 4.18081968, !- X,Y,Z Vertex 2 {m}
  11.1779443425487, 40.1443250850087, 4.18081968, !- X,Y,Z Vertex 3 {m}
  7.31604736868685, 44.0062220588706, 4.18081968; !- X,Y,Z Vertex 4 {m}

Shading:Zone:Detailed,
  Window5 overhangs,                      !- Name
  Wall1:45,                               !- Base Surface Name
  ,                                       !- Transmittance Schedule Name
  ,                                       !- Number of Vertices
  5.72158493387881, 45.0187638970335, 4.53743568, !- X,Y,Z Vertex 1 {m}
  9.88986061503421, 40.850488215878, 4.53743568, !- X,Y,Z Vertex 2 {m}
  10.1808209133569, 41.1414485142006, 4.53743568, !- X,Y,Z Vertex 3 {m}
  6.01254523220141, 45.3097241953561, 4.53743568; !- X,Y,Z Vertex 4 {m}

Shading:Zone:Detailed,
  Window7 overhangs,                      !- Name
  Wall1:315,                              !- Base Surface Name
  ,                                       !- Transmittance Schedule Name
  ,                                       !- Number of Vertices
  -15.5337563944077, 35.2065924365046, 4.18081968, !- X,Y,Z Vertex 1 {m}
  -11.6718594205458, 39.0684894103664, 4.18081968, !- X,Y,Z Vertex 2 {m}
  -11.9628197188684, 39.3594497086891, 4.18081968, !- X,Y,Z Vertex 3 {m}
  -15.8247166927303, 35.4975527348272, 4.18081968; !- X,Y,Z Vertex 4 {m}

Shading:Zone:Detailed,
  Window8 overhangs,                      !- Name
  Wall1:225,                              !- Base Surface Name
  ,                                       !- Transmittance Schedule Name
  ,                                       !- Number of Vertices
  -33.9799913192649, -16.7603575116473, 5.27200368, !- X,Y,Z Vertex 1 {m}
  -38.8122011337871, -11.9281476971251, 5.27200368, !- X,Y,Z Vertex 2 {m}
  -39.1031614321098, -12.2191079954477, 5.27200368, !- X,Y,Z Vertex 3 {m}
  -34.2709516175875, -17.05131780997, 5.27200368; !- X,Y,Z Vertex 4 {m}

Shading:Zone:Detailed,
  Window9 overhangs,                      !- Name
  surface Window8,                        !- Base Surface Name
  ,                                       !- Transmittance Schedule Name
  ,                                       !- Number of Vertices
  -32.6227734353969, -18.1175753955154, 4.18081968, !- X,Y,Z Vertex 1 {m}
  -36.844764863935, -13.8955839669773, 4.18081968, !- X,Y,Z Vertex 2 {m}
  -37.1357251622576, -14.1865442652999, 4.18081968, !- X,Y,Z Vertex 3 {m}
  -32.9137337337195, -18.408535693838, 4.18081968; !- X,Y,Z Vertex 4 {m}

BuildingSurface:Detailed,
  Floor1,                                 !- Name
  Ceiling,                                !- Surface Type
  Floor1 construction,                    !- Construction Name
  conditioned space,                      !- Zone Name
  conditioned space 1,                    !- Space Name
  Surface,                                !- Outside Boundary Condition
  Surface 1 Reversed,                     !- Outside Boundary Condition Object
  NoSun,                                  !- Sun Exposure
  NoWind,                                 !- Wind Exposure
  ,                                       !- View Factor to Ground
  ,                                       !- Number of Vertices
  -4.44089209850063e-16, -5.27683630048763, 5.57680368, !- X,Y,Z Vertex 1 {m}
  5.27683630048763, 8.88178419700125e-16, 5.57680368, !- X,Y,Z Vertex 2 {m}
  4.44089209850063e-16, 5.27683630048763, 5.57680368, !- X,Y,Z Vertex 3 {m}
  -5.27683630048763, -8.88178419700125e-16, 5.57680368; !- X,Y,Z Vertex 4 {m}

BuildingSurface:Detailed,
  FoundationWall1,                        !- Name
  Wall,                                   !- Surface Type
  FoundationWall1 construction,           !- Construction Name
  conditioned space,                      !- Zone Name
  conditioned space 1,                    !- Space Name
  Foundation,                             !- Outside Boundary Condition
  Foundation Kiva 1,                      !- Outside Boundary Condition Object
  NoSun,                                  !- Sun Exposure
  NoWind,                                 !- Wind Exposure
  ,                                       !- View Factor to Ground
  ,                                       !- Number of Vertices
  29.6190666181486, 21.1212822127636, -1.59998664, !- X,Y,Z Vertex 1 {m}
  29.6190666181486, 21.1212822127636, 0.70000368, !- X,Y,Z Vertex 2 {m}
  48.6282206096359, 2.11212822127632, 0.70000368, !- X,Y,Z Vertex 3 {m}
  48.6282206096359, 2.11212822127632, 0.632822380656234, !- X,Y,Z Vertex 4 {m}
  50.7403488309122, 2.1316282072803e-14, 0.632822380656234, !- X,Y,Z Vertex 5 {m}
  50.7403488309122, 2.1316282072803e-14, -1.59998664; !- X,Y,Z Vertex 6 {m}

BuildingSurface:Detailed,
  inferred conditioned ceiling,           !- Name
  Ceiling,                                !- Surface Type
  AdiabaticFloorConstruction,             !- Construction Name
  conditioned space,                      !- Zone Name
  conditioned space 1,                    !- Space Name
  Adiabatic,                              !- Outside Boundary Condition
  ,                                       !- Outside Boundary Condition Object
  NoSun,                                  !- Sun Exposure
  NoWind,                                 !- Wind Exposure
  ,                                       !- View Factor to Ground
  ,                                       !- Number of Vertices
  4.44089209850063e-16, -7.4632444440739, 3.13840368, !- X,Y,Z Vertex 1 {m}
  7.4632444440739, 4.44089209850063e-16, 3.13840368, !- X,Y,Z Vertex 2 {m}
  -4.44089209850063e-16, 7.4632444440739, 3.13840368, !- X,Y,Z Vertex 3 {m}
  -7.4632444440739, -4.44089209850063e-16, 3.13840368; !- X,Y,Z Vertex 4 {m}

BuildingSurface:Detailed,
  inferred conditioned floor,             !- Name
  Floor,                                  !- Surface Type
  AdiabaticFloorConstruction,             !- Construction Name
  conditioned space,                      !- Zone Name
  conditioned space 1,                    !- Space Name
  Adiabatic,                              !- Outside Boundary Condition
  ,                                       !- Outside Boundary Condition Object
  NoSun,                                  !- Sun Exposure
  NoWind,                                 !- Wind Exposure
  ,                                       !- View Factor to Ground
  ,                                       !- Number of Vertices
  -7.4632444440739, -4.44089209850063e-16, 3.13840368, !- X,Y,Z Vertex 1 {m}
  -4.44089209850063e-16, 7.4632444440739, 3.13840368, !- X,Y,Z Vertex 2 {m}
  7.4632444440739, 4.44089209850063e-16, 3.13840368, !- X,Y,Z Vertex 3 {m}
  4.44089209850063e-16, -7.4632444440739, 3.13840368; !- X,Y,Z Vertex 4 {m}

BuildingSurface:Detailed,
  RimJoist1:135,                          !- Name
  Wall,                                   !- Surface Type
  RimJoist1 construction,                 !- Construction Name
  conditioned space,                      !- Zone Name
  conditioned space 1,                    !- Space Name
  Outdoors,                               !- Outside Boundary Condition
  ,                                       !- Outside Boundary Condition Object
  SunExposed,                             !- Sun Exposure
  WindExposed,                            !- Wind Exposure
  ,                                       !- View Factor to Ground
  ,                                       !- Number of Vertices
  4.09553560657479, -46.6448132243374, 0.70000368, !- X,Y,Z Vertex 1 {m}
  4.09553560657479, -46.6448132243374, 1.00480368, !- X,Y,Z Vertex 2 {m}
  -1.4210854715202e-14, -50.7403488309122, 1.00480368, !- X,Y,Z Vertex 3 {m}
  -1.4210854715202e-14, -50.7403488309122, 0.70000368; !- X,Y,Z Vertex 4 {m}

BuildingSurface:Detailed,
  RimJoist1:225,                          !- Name
  Wall,                                   !- Surface Type
  RimJoist1 construction,                 !- Construction Name
  conditioned space,                      !- Zone Name
  conditioned space 1,                    !- Space Name
  Outdoors,                               !- Outside Boundary Condition
  ,                                       !- Outside Boundary Condition Object
  SunExposed,                             !- Sun Exposure
  WindExposed,                            !- Wind Exposure
  ,                                       !- View Factor to Ground
  ,                                       !- Number of Vertices
  -46.6448132243374, -4.09553560657479, 0.70000368, !- X,Y,Z Vertex 1 {m}
  -46.6448132243374, -4.09553560657479, 1.00480368, !- X,Y,Z Vertex 2 {m}
  -50.7403488309122, 1.06581410364015e-14, 1.00480368, !- X,Y,Z Vertex 3 {m}
  -50.7403488309122, 1.06581410364015e-14, 0.70000368; !- X,Y,Z Vertex 4 {m}

BuildingSurface:Detailed,
  RimJoist1:315,                          !- Name
  Wall,                                   !- Surface Type
  RimJoist1 construction,                 !- Construction Name
  conditioned space,                      !- Zone Name
  conditioned space 1,                    !- Space Name
  Outdoors,                               !- Outside Boundary Condition
  ,                                       !- Outside Boundary Condition Object
  SunExposed,                             !- Sun Exposure
  WindExposed,                            !- Wind Exposure
  ,                                       !- View Factor to Ground
  ,                                       !- Number of Vertices
  -4.09553560657479, 46.6448132243374, 0.70000368, !- X,Y,Z Vertex 1 {m}
  -4.09553560657479, 46.6448132243374, 1.00480368, !- X,Y,Z Vertex 2 {m}
  1.06581410364015e-14, 50.7403488309122, 1.00480368, !- X,Y,Z Vertex 3 {m}
  1.06581410364015e-14, 50.7403488309122, 0.70000368; !- X,Y,Z Vertex 4 {m}

BuildingSurface:Detailed,
  RimJoist1:45,                           !- Name
  Wall,                                   !- Surface Type
  RimJoist1 construction,                 !- Construction Name
  conditioned space,                      !- Zone Name
  conditioned space 1,                    !- Space Name
  Outdoors,                               !- Outside Boundary Condition
  ,                                       !- Outside Boundary Condition Object
  SunExposed,                             !- Sun Exposure
  WindExposed,                            !- Wind Exposure
  ,                                       !- View Factor to Ground
  ,                                       !- Number of Vertices
  24.8666073158053, 25.8737415151069, 0.70000368, !- X,Y,Z Vertex 1 {m}
  24.8666073158053, 25.8737415151069, 1.00480368, !- X,Y,Z Vertex 2 {m}
  28.9621429223801, 21.7782059085321, 1.00480368, !- X,Y,Z Vertex 3 {m}
  28.9621429223801, 21.7782059085321, 0.70000368; !- X,Y,Z Vertex 4 {m}

BuildingSurface:Detailed,
  RimJoist2:135,                          !- Name
  Wall,                                   !- Surface Type
  RimJoist2 construction,                 !- Construction Name
  conditioned space,                      !- Zone Name
  conditioned space 1,                    !- Space Name
  Outdoors,                               !- Outside Boundary Condition
  ,                                       !- Outside Boundary Condition Object
  SunExposed,                             !- Sun Exposure
  WindExposed,                            !- Wind Exposure
  ,                                       !- View Factor to Ground
  ,                                       !- Number of Vertices
  8.71275225173478, -42.0275965791775, 0.70000368, !- X,Y,Z Vertex 1 {m}
  8.71275225173478, -42.0275965791775, 1.00480368, !- X,Y,Z Vertex 2 {m}
  4.75245930234329, -45.987889528569, 1.00480368, !- X,Y,Z Vertex 3 {m}
  4.75245930234329, -45.987889528569, 0.70000368; !- X,Y,Z Vertex 4 {m}

BuildingSurface:Detailed,
  RimJoist2:225,                          !- Name
  Wall,                                   !- Surface Type
  RimJoist2 construction,                 !- Construction Name
  conditioned space,                      !- Zone Name
  conditioned space 1,                    !- Space Name
  Outdoors,                               !- Outside Boundary Condition
  ,                                       !- Outside Boundary Condition Object
  SunExposed,                             !- Sun Exposure
  WindExposed,                            !- Wind Exposure
  ,                                       !- View Factor to Ground
  ,                                       !- Number of Vertices
  -42.0275965791775, -8.71275225173479, 0.70000368, !- X,Y,Z Vertex 1 {m}
  -42.0275965791775, -8.71275225173479, 1.00480368, !- X,Y,Z Vertex 2 {m}
  -45.987889528569, -4.75245930234329, 1.00480368, !- X,Y,Z Vertex 3 {m}
  -45.987889528569, -4.75245930234329, 0.70000368; !- X,Y,Z Vertex 4 {m}

BuildingSurface:Detailed,
  RimJoist2:315,                          !- Name
  Wall,                                   !- Surface Type
  RimJoist2 construction,                 !- Construction Name
  conditioned space,                      !- Zone Name