
Version,
  24.2;                                   !- Version Identifier

Timestep,
  1;                                      !- Number of Timesteps per Hour

Building,
  Building 1,                             !- Name
  ,                                       !- North Axis {deg}
  Suburbs,                                !- Terrain
  ,                                       !- Loads Convergence Tolerance Value {W}
  ,                                       !- Temperature Convergence Tolerance Value {deltaC}
  ,                                       !- Solar Distribution
  ,                                       !- Maximum Number of Warmup Days
  ;                                       !- Minimum Number of Warmup Days

Zone,
  attic - vented,                         !- Name
  ,                                       !- Direction of Relative North {deg}
  0,                                      !- X Origin {m}
  0,                                      !- Y Origin {m}
  0,                                      !- Z Origin {m}
  ,                                       !- Type
  1,                                      !- Multiplier
  ,                                       !- Ceiling Height {m}
  23.5518789377855,                       !- Volume {m3}
  ,                                       !- Floor Area {m2}
  ,                                       !- Zone Inside Convection Algorithm
  ,                                       !- Zone Outside Convection Algorithm
  Yes;                                    !- Part of Total Floor Area

Space,
  attic - vented 1,                       !- Name
  attic - vented,                         !- Zone Name
  ,                                       !- Ceiling Height {m}
  23.5518789377855,                       !- Volume {m3}
  ;                                       !- Floor Area {m2}

Shading:Zone:Detailed,
  Window8 overhangs,                      !- Name
  Roof1:315,                              !- Base Surface Name
  ,                                       !- Transmittance Schedule Name
  ,                                       !- Number of Vertices
  -10.6256813546306, 26.158367735383, 5.22878304, !- X,Y,Z Vertex 1 {m}
  -6.51559773313956, 30.2684513568739, 5.22878304, !- X,Y,Z Vertex 2 {m}
  -6.80655803146226, 30.5594116551966, 5.22878304, !- X,Y,Z Vertex 3 {m}
  -10.9166416529532, 26.4493280337057, 5.22878304; !- X,Y,Z Vertex 4 {m}

BuildingSurface:Detailed,
  Roof1:135,                              !- Name
  Roof,                                   !- Surface Type
  Roof1 construction,                     !- Construction Name
  attic - vented,                         !- Zone Name
  attic - vented 1,                       !- Space Name
  Outdoors,                               !- Outside Boundary Condition
  ,                                       !- Outside Boundary Condition Object
  SunExposed,                             !- Sun Exposure
  WindExposed,                            !- Wind Exposure
  ,                                       !- View Factor to Ground
  ,                                       !- Number of Vertices
  4.59632887312909, -32.1877202168845, 3.80841504, !- X,Y,Z Vertex 1 {m}
  -0.669150305282106, -26.9222410384733, 6.29058572883409, !- X,Y,Z Vertex 2 {m}
  -2.05672590327971, -28.3098166364709, 6.29058572883409, !- X,Y,Z Vertex 3 {m}
  3.20875327513149, -33.5752958148821, 3.80841504; !- X,Y,Z Vertex 4 {m}

BuildingSurface:Detailed,
  Roof1:225,                              !- Name
  Roof,                                   !- Surface Type
  Roof1 construction,                     !- Construction Name
  attic - vented,                         !- Zone Name
  attic - vented 1,                       !- Space Name
  Outdoors,                               !- Outside Boundary Condition
  ,                                       !- Outside Boundary Condition Object
  SunExposed,                             !- Sun Exposure
  WindExposed,                            !- Wind Exposure
  ,                                       !- View Factor to Ground
  ,                                       !- Number of Vertices
  -32.1877202168845, -4.5963288731291, 3.80841504, !- X,Y,Z Vertex 1 {m}
  -26.9222410384733, 0.669150305282102, 6.29058572883409, !- X,Y,Z Vertex 2 {m}
  -28.3098166364709, 2.0567259032797, 6.29058572883409, !- X,Y,Z Vertex 3 {m}
  -33.5752958148821, -3.2087532751315, 3.80841504; !- X,Y,Z Vertex 4 {m}

BuildingSurface:Detailed,
  Roof1:315,                              !- Name
  Roof,                                   !- Surface Type
  Roof1 construction,                     !- Construction Name
  attic - vented,                         !- Zone Name
  attic - vented 1,                       !- Space Name
  Outdoors,                               !- Outside Boundary Condition
  ,                                       !- Outside Boundary Condition Object
  SunExposed,                             !- Sun Exposure
  WindExposed,                            !- Wind Exposure
  ,                                       !- View Factor to Ground
  ,                                       !- Number of Vertices
  -4.5963288731291, 32.1877202168845, 3.80841504, !- X,Y,Z Vertex 1 {m}
  0.669150305282102, 26.9222410384733, 6.29058572883409, !- X,Y,Z Vertex 2 {m}
  2.0567259032797, 28.3098166364709, 6.29058572883409, !- X,Y,Z Vertex 3 {m}
  -3.2087532751315, 33.5752958148821, 3.80841504; !- X,Y,Z Vertex 4 {m}

BuildingSurface:Detailed,
  Roof1:45,                               !- Name
  Roof,                                   !- Surface Type
  Roof1 construction,                     !- Construction Name
  attic - vented,                         !- Zone Name
  attic - vented 1,                       !- Space Name
  Outdoors,                               !- Outside Boundary Condition
  ,                                       !- Outside Boundary Condition Object
  SunExposed,                             !- Sun Exposure
  WindExposed,                            !- Wind Exposure
  ,                                       !- View Factor to Ground
  ,                                       !- Number of Vertices
  16.0670756646259, 20.7169734253876, 3.80841504, !- X,Y,Z Vertex 1 {m}
  10.8015964862148, 15.4514942469765, 6.29058572883409, !- X,Y,Z Vertex 2 {m}
  12.1891720842124, 14.0639186489789, 6.29058572883409, !- X,Y,Z Vertex 3 {m}
  17.4546512626235, 19.32939782739, 3.80841504; !- X,Y,Z Vertex 4 {m}

BuildingSurface:Detailed,
  Surface 1 Reversed,                     !- Name
  Floor,                                  !- Surface Type
  Floor2 construction Reversed,           !- Construction Name
  attic - vented,                         !- Zone Name
  attic - vented 1,                       !- Space Name
  Surface,                                !- Outside Boundary Condition
  Floor2,                                 !- Outside Boundary Condition Object
  NoSun,                                  !- Sun Exposure
  NoWind,                                 !- Wind Exposure
  ,                                       !- View Factor to Ground
  ,                                       !- Number of Vertices
  -5.40601532359205, -4.44089209850063e-16, 3.80841504, !- X,Y,Z Vertex 1 {m}
  -4.44089209850063e-16, 5.40601532359205, 3.80841504, !- X,Y,Z Vertex 2 {m}
  5.40601532359205, 4.44089209850063e-16, 3.80841504, !- X,Y,Z Vertex 3 {m}
  4.44089209850063e-16, -5.40601532359205, 3.80841504; !- X,Y,Z Vertex 4 {m}

BuildingSurface:Detailed,
  surface Window8,                        !- Name
  Wall,                                   !- Surface Type
  AdiabaticWallConstruction,              !- Construction Name
  attic - vented,                         !- Zone Name
  attic - vented 1,                       !- Space Name
  Outdoors,                               !- Outside Boundary Condition
  ,                                       !- Outside Boundary Condition Object
  SunExposed,                             !- Sun Exposure
  WindExposed,                            !- Wind Exposure
  ,                                       !- View Factor to Ground
  ,                                       !- Number of Vertices
  -8.76023193982456, 28.0238171501889, 1.36859090233947, !- X,Y,Z Vertex 1 {m}
  -8.76023193982456, 28.0238171501889, 2.59063917766053, !- X,Y,Z Vertex 2 {m}
  -8.38104714794546, 28.403001942068, 2.59063917766053, !- X,Y,Z Vertex 3 {m}
  -8.38104714794546, 28.403001942068, 1.36859090233947; !- X,Y,Z Vertex 4 {m}

FenestrationSurface:Detailed,
  Window8,                                !- Name
  Window,                                 !- Surface Type
  WindowConstruction 9,                   !- Construction Name
  surface Window8,                        !- Building Surface Name
  ,                                       !- Outside Boundary Condition Object
  ,                                       !- View Factor to Ground
  ,                                       !- Frame and Divider Name
  ,                                       !- Multiplier
  ,                                       !- Number of Vertices
  -8.75922492242746, 28.024824167586, 1.37001504, !- X,Y,Z Vertex 1 {m}
  -8.75922492242746, 28.024824167586, 2.58921504, !- X,Y,Z Vertex 2 {m}
  -8.38205416534256, 28.4019949246709, 2.58921504, !- X,Y,Z Vertex 3 {m}
  -8.38205416534256, 28.4019949246709, 1.37001504; !- X,Y,Z Vertex 4 {m}

BuildingSurface:Detailed,
  Wall3:135,                              !- Name
  Wall,                                   !- Surface Type
  Wall3 construction,                     !- Construction Name
  attic - vented,                         !- Zone Name
  attic - vented 1,                       !- Space Name
  Outdoors,                               !- Outside Boundary Condition
  ,                                       !- Outside Boundary Condition Object
  SunExposed,                             !- Sun Exposure
  WindExposed,                            !- Wind Exposure
  ,                                       !- View Factor to Ground
  ,                                       !- Number of Vertices
  16.1108533947069, -20.6731956953066, 1.37001504, !- X,Y,Z Vertex 1 {m}
  16.1108533947069, -20.6731956953066, 3.80841504, !- X,Y,Z Vertex 2 {m}
  15.1501937775838, -21.6338553124297, 3.80841504, !- X,Y,Z Vertex 3 {m}
  15.1501937775838, -21.6338553124297, 1.37001504; !- X,Y,Z Vertex 4 {m}

BuildingSurface:Detailed,
  Wall3:225,                              !- Name
  Wall,                                   !- Surface Type
  Wall3 construction,                     !- Construction Name
  attic - vented,                         !- Zone Name
  attic - vented 1,                       !- Space Name
  Outdoors,                               !- Outside Boundary Condition
  ,                                       !- Outside Boundary Condition Object
  SunExposed,                             !- Sun Exposure
  WindExposed,                            !- Wind Exposure
  ,                                       !- View Factor to Ground
  ,                                       !- Number of Vertices
  -23.3729023079177, -13.4111467820958, 1.37001504, !- X,Y,Z Vertex 1 {m}
  -23.3729023079177, -13.4111467820958, 3.80841504, !- X,Y,Z Vertex 2 {m}
  -24.3335619250408, -12.4504871649727, 3.80841504, !- X,Y,Z Vertex 3 {m}
  -24.3335619250408, -12.4504871649727, 1.37001504; !- X,Y,Z Vertex 4 {m}

BuildingSurface:Detailed,
  Wall3:315,                              !- Name
  Wall,                                   !- Surface Type
  Wall3 construction,                     !- Construction Name
  attic - vented,                         !- Zone Name
  attic - vented 1,                       !- Space Name
  Outdoors,                               !- Outside Boundary Condition
  ,                                       !- Outside Boundary Condition Object
  SunExposed,                             !- Sun Exposure
  WindExposed,                            !- Wind Exposure
  ,                                       !- View Factor to Ground
  ,                                       !- Number of Vertices
  -16.2527364997485, 20.531312590265, 1.37001504, !- X,Y,Z Vertex 1 {m}
  -16.2527364997485, 20.531312590265, 3.80841504, !- X,Y,Z Vertex 2 {m}
  -15.2920768826254, 21.4919722073881, 3.80841504, !- X,Y,Z Vertex 3 {m}
  -15.2920768826254, 21.4919722073881, 1.37001504; !- X,Y,Z Vertex 4 {m}

BuildingSurface:Detailed,
  Wall3:45,                               !- Name
  Wall,                                   !- Surface Type
  Wall3 construction,                     !- Construction Name
  attic - vented,                         !- Zone Name
  attic - vented 1,                       !- Space Name
  Outdoors,                               !- Outside Boundary Condition
  ,                                       !- Outside Boundary Condition Object
  SunExposed,                             !- Sun Exposure
  WindExposed,                            !- Wind Exposure
  ,                                       !- View Factor to Ground
  ,                                       !- Number of Vertices
  7.73706926949056, 29.0469798205229, 1.37001504, !- X,Y,Z Vertex 1 {m}
  7.73706926949056, 29.0469798205229, 3.80841504, !- X,Y,Z Vertex 2 {m}
  8.69772888661366, 28.0863202033998, 3.80841504, !- X,Y,Z Vertex 3 {m}
  8.69772888661366, 28.0863202033998, 1.37001504; !- X,Y,Z Vertex 4 {m}

ZoneInfiltration:EffectiveLeakageArea,
  infil attic - vented 1,                 !- Name
  attic - vented 1,                       !- Zone or Space Name
  Always On Discrete,                     !- Schedule Name
  2158.15397013504,                       !- Effective Air Leakage Area {cm2}
  0.000342266595378304,                   !- Stack Coefficient
  1.24997796474152e-05;                   !- Wind Coefficient

ZoneMixing,
  whole house fan mix,                    !- Name
  attic - vented,                         !- Zone or Space Name
  Always On Continuous,                   !- Schedule Name
  Flow/Zone,                              !- Design Flow Rate Calculation Method
  0,                                      !- Design Flow Rate {m3/s}
  ,                                       !- Flow Rate per Floor Area {m3/s-m2}
  ,                                       !- Flow Rate per Person {m3/s-person}
  ,                                       !- Air Changes per Hour {1/hr}
  conditioned space;                      !- Source Zone or Space Name

Schedule:Constant,
  Always On Continuous,                   !- Name
  Fractional 1,                           !- Schedule Type Limits Name
  1;                                      !- Hourly Value

Zone,
  conditioned space,                      !- Name
  ,                                       !- Direction of Relative North {deg}
  0,                                      !- X Origin {m}
  0,                                      !- Y Origin {m}
  0,                                      !- Z Origin {m}
  ,                                       !- Type
  1,                                      !- Multiplier
  ,                                       !- Ceiling Height {m}
  291.299931587359,                       !- Volume {m3}
  ,                                       !- Floor Area {m2}
  ,                                       !- Zone Inside Convection Algorithm
  ,                                       !- Zone Outside Convection Algorithm
  Yes;                                    !- Part of Total Floor Area

Space,
  conditioned space 1,                    !- Name
  conditioned space,                      !- Zone Name
  ,                                       !- Ceiling Height {m}
  291.299931587359,                       !- Volume {m3}
  ;                                       !- Floor Area {m2}

Shading:Zone:Detailed,
  Window1 overhangs,                      !- Name
  surface Window1,                        !- Base Surface Name
  ,                                       !- Transmittance Schedule Name
  ,                                       !- Number of Vertices
  6.97794069113599, -29.8061083988776, 2.94278304, !- X,Y,Z Vertex 1 {m}
  5.11100531193979, -31.6730437780738, 2.94278304, !- X,Y,Z Vertex 2 {m}
  5.40196561026249, -31.9640040763964, 2.94278304, !- X,Y,Z Vertex 3 {m}
  7.26890098945859, -30.0970686972003, 2.94278304; !- X,Y,Z Vertex 4 {m}

Shading:Zone:Detailed,
  Window10 overhangs,                     !- Name
  Wall1:135,                              !- Base Surface Name
  ,                                       !- Transmittance Schedule Name
  ,                                       !- Number of Vertices
  10.1672966130459, -26.6167524769677, 4.64356704, !- X,Y,Z Vertex 1 {m}
  5.62616069774369, -31.1578883922699, 4.64356704, !- X,Y,Z Vertex 2 {m}
  5.91712099606629, -31.4488486905926, 4.64356704, !- X,Y,Z Vertex 3 {m}
  10.4582569113686, -26.9077127752903, 4.64356704; !- X,Y,Z Vertex 4 {m}

Shading:Zone:Detailed,
  Window11 overhangs,                     !- Name
  Wall1:225,                              !- Base Surface Name
  ,                                       !- Transmittance Schedule Name
  ,                                       !- Number of Vertices
  -28.6768573100616, -8.10719177995197, 4.64356704, !- X,Y,Z Vertex 1 {m}
  -33.397252953319, -3.38679613669457, 4.64356704, !- X,Y,Z Vertex 2 {m}
  -33.6882132516416, -3.67775643501717, 4.64356704, !- X,Y,Z Vertex 3 {m}
  -28.9678176083842, -8.39815207827467, 4.64356704; !- X,Y,Z Vertex 4 {m}

Shading:Zone:Detailed,
  Window3 overhangs,                      !- Name
  surface Window3,                        !- Base Surface Name
  ,                                       !- Transmittance Schedule Name
  ,                                       !- Number of Vertices
  9.477181890654, -27.3068671993596, 2.79038304, !- X,Y,Z Vertex 1 {m}
  8.8155166196536, -27.96853247036, 2.79038304, !- X,Y,Z Vertex 2 {m}
  9.1064769179762, -28.2594927686826, 2.79038304, !- X,Y,Z Vertex 3 {m}
  9.7681421889766, -27.5978274976822, 2.79038304; !- X,Y,Z Vertex 4 {m}

Shading:Zone:Detailed,
  Window4 overhangs,                      !- Name
  surface Window4,                        !- Base Surface Name
  ,                                       !- Transmittance Schedule Name
  ,                                       !- Number of Vertices
  10.2418686598752, -26.5421804301383, 2.79038304, !- X,Y,Z Vertex 1 {m}
  9.84961107250692, -26.9344380175066, 2.79038304, !- X,Y,Z Vertex 2 {m}
  10.1405713708296, -27.2253983158293, 2.79038304, !- X,Y,Z Vertex 3 {m}
  10.5328289581979, -26.833140728461, 2.79038304; !- X,Y,Z Vertex 4 {m}

Shading:Zone:Detailed,
  Window5 overhangs,                      !- Name
  surface Window5,                        !- Base Surface Name
  ,                                       !- Transmittance Schedule Name
  ,                                       !- Number of Vertices
  -6.61758715347086, 30.1664619365426, 3.27196704, !- X,Y,Z Vertex 1 {m}
  -5.11100531193986, 31.6730437780737, 3.27196704, !- X,Y,Z Vertex 2 {m}
  -5.40196561026246, 31.9640040763964, 3.27196704, !- X,Y,Z Vertex 3 {m}
  -6.90854745179356, 30.4574222348653, 3.27196704; !- X,Y,Z Vertex 4 {m}

Shading:Zone:Detailed,
  Window6 overhangs,                      !- Name
  surface Window6,                        !- Base Surface Name
  ,                                       !- Transmittance Schedule Name
  ,                                       !- Number of Vertices
  -7.86737772653189, 28.9166713634817, 2.53739904, !- X,Y,Z Vertex 1 {m}
  -6.99001633532389, 29.7940327546897, 2.53739904, !- X,Y,Z Vertex 2 {m}
  -7.28097663364649, 30.0849930530123, 2.53739904, !- X,Y,Z Vertex 3 {m}
  -8.15833802485449, 29.2076316618043, 2.53739904; !- X,Y,Z Vertex 4 {m}

Shading:Zone:Detailed,
  Window7 overhangs,                      !- Name
  surface Window7,                        !- Base Surface Name
  ,                                       !- Transmittance Schedule Name
  ,                                       !- Number of Vertices
  -29.2418870427494, -7.54216204726415, 3.62858304, !- X,Y,Z Vertex 1 {m}
  -30.0286373034539, -6.75541178655965, 3.62858304, !- X,Y,Z Vertex 2 {m}
  -30.3195976017766, -7.04637208488235, 3.62858304, !- X,Y,Z Vertex 3 {m}
  -29.5328473410721, -7.83312234558685, 3.62858304; !- X,Y,Z Vertex 4 {m}

Shading:Zone:Detailed,
  Window9 overhangs,                      !- Name
  surface Window9,                        !- Base Surface Name
  ,                                       !- Transmittance Schedule Name
  ,                                       !- Number of Vertices
  -10.3837517649168, 26.4002973250968, 2.23259904, !- X,Y,Z Vertex 1 {m}
  -9.27390136123824, 27.5101477287754, 2.23259904, !- X,Y,Z Vertex 2 {m}
  -11.4313180917638, 29.667564459301, 2.23259904, !- X,Y,Z Vertex 3 {m}
  -12.5411684954425, 28.5577140556224, 2.23259904; !- X,Y,Z Vertex 4 {m}

BuildingSurface:Detailed,
  Floor1,                                 !- Name
  Floor,                                  !- Surface Type
  Floor1 construction,                    !- Construction Name
  conditioned space,                      !- Zone Name
  conditioned space 1,                    !- Space Name
  Outdoors,                               !- Outside Boundary Condition
  ,                                       !- Outside Boundary Condition Object
  NoSun,                                  !- Sun Exposure
  WindExposed,                            !- Wind Exposure
  ,                                       !- View Factor to Ground
  ,                                       !- Number of Vertices
  -0.458214873612806, 0, 1.37001504,      !- X,Y,Z Vertex 1 {m}
  -8.32667268468867e-17, 0.458214873612806, 1.37001504, !- X,Y,Z Vertex 2 {m}
  0.458214873612806, 0, 1.37001504,       !- X,Y,Z Vertex 3 {m}
  8.32667268468867e-17, -0.458214873612806, 1.37001504; !- X,Y,Z Vertex 4 {m}

BuildingSurface:Detailed,
  Floor2,                                 !- Name
  Ceiling,                                !- Surface Type
  Floor2 construction,                    !- Construction Name
  conditioned space,                      !- Zone Name
  conditioned space 1,                    !- Space Name
  Surface,                                !- Outside Boundary Condition
  Surface 1 Reversed,                     !- Outside Boundary Condition Object
  NoSun,                                  !- Sun Exposure
  NoWind,                                 !- Wind Exposure
  ,                                       !- View Factor to Ground
  ,                                       !- Number of Vertices
  4.44089209850063e-16, -5.40601532359205, 3.80841504, !- X,Y,Z Vertex 1 {m}
  5.40601532359205, 4.44089209850063e-16, 3.80841504, !- X,Y,Z Vertex 2 {m}
  -4.44089209850063e-16, 5.40601532359205, 3.80841504, !- X,Y,Z Vertex 3 {m}
  -5.40601532359205, -4.44089209850063e-16, 3.80841504; !- X,Y,Z Vertex 4 {m}

BuildingSurface:Detailed,
  FoundationWall1,                        !- Name
  Wall,                                   !- Surface Type
  FoundationWall1 construction,           !- Construction Name
  conditioned space,                      !- Zone Name
  conditioned space 1,                    !- Space Name
  Foundation,                             !- Outside Boundary Condition
  Foundation Kiva 1,                      !- Outside Boundary Condition Object
  NoSun,                                  !- Sun Exposure
  NoWind,                                 !- Wind Exposure
  ,                                       !- View Factor to Ground
  ,                                       !- Number of Vertices
  21.3203282335234, 15.4637208564901, -0.9899904, !- X,Y,Z Vertex 1 {m}
  21.3203282335234, 15.4637208564901, 1.37001504, !- X,Y,Z Vertex 2 {m}
  35.2376770043645, 1.54637208564897, 1.37001504, !- X,Y,Z Vertex 3 {m}
  35.2376770043645, 1.54637208564897, -0.216248125743766, !- X,Y,Z Vertex 4 {m}
  36.7840490900135, -2.8421709430404e-14, -0.216248125743766, !- X,Y,Z Vertex 5 {m}
  36.7840490900135, -2.8421709430404e-14, -0.9899904; !- X,Y,Z Vertex 6 {m}

BuildingSurface:Detailed,
  inferred conditioned ceiling,           !- Name
  Ceiling,                                !- Surface Type
  AdiabaticFloorConstruction,             !- Construction Name
  conditioned space,                      !- Zone Name
  conditioned space 1,                    !- Space Name
  Adiabatic,                              !- Outside Boundary Condition
  ,                                       !- Outside Boundary Condition Object
  NoSun,                                  !- Sun Exposure
  NoWind,                                 !- Wind Exposure
  ,                                       !- View Factor to Ground
  ,                                       !- Number of Vertices
  4.44089209850063e-16, -5.4083322409778, 1.37001504, !- X,Y,Z Vertex 1 {m}
  5.4083322409778, 4.44089209850063e-16, 1.37001504, !- X,Y,Z Vertex 2 {m}
  -4.44089209850063e-16, 5.4083322409778, 1.37001504, !- X,Y,Z Vertex 3 {m}
  -5.4083322409778, -4.44089209850063e-16, 1.37001504; !- X,Y,Z Vertex 4 {m}

BuildingSurface:Detailed,
  inferred conditioned floor,             !- Name
  Floor,                                  !- Surface Type
  AdiabaticFloorConstruction,             !- Construction Name
  conditioned space,                      !- Zone Name
  conditioned space 1,                    !- Space Name
  Adiabatic,                              !- Outside Boundary Condition
  ,                                       !- Outside Boundary Condition Object
  NoSun,                                  !- Sun Exposure
  NoWind,                                 !- Wind Exposure
  ,                                       !- View Factor to Ground
  ,                                       !- Number of Vertices
  -5.4083322409778, -4.44089209850063e-16, 1.37001504, !- X,Y,Z Vertex 1 {m}
  -4.44089209850063e-16, 5.4083322409778, 1.37001504, !- X,Y,Z Vertex 2 {m}
  5.4083322409778, 4.44089209850063e-16, 1.37001504, !- X,Y,Z Vertex 3 {m}
  4.44089209850063e-16, -5.4083322409778, 1.37001504; !- X,Y,Z Vertex 4 {m}

BuildingSurface:Detailed,
  RimJoist1:135,                          !- Name
  Wall,                                   !- Surface Type
  RimJoist1 construction,                 !- Construction Name
  conditioned space,                      !- Zone Name
  conditioned space 1,                    !- Space Name
  Outdoors,                               !- Outside Boundary Condition
  ,                                       !- Outside Boundary Condition Object
  SunExposed,                             !- Sun Exposure
  WindExposed,                            !- Wind Exposure
  ,                                       !- View Factor to Ground
  ,                                       !- Number of Vertices
  2.55182957936302, -34.2322195106506, 1.37001504, !- X,Y,Z Vertex 1 {m}
  2.55182957936302, -34.2322195106506, 1.67481504, !- X,Y,Z Vertex 2 {m}
  2.48689957516035e-14, -36.7840490900136, 1.67481504, !- X,Y,Z Vertex 3 {m}
  2.48689957516035e-14, -36.7840490900136, 1.37001504; !- X,Y,Z Vertex 4 {m}

BuildingSurface:Detailed,
  RimJoist1:225,                          !- Name
  Wall,                                   !- Surface Type
  RimJoist1 construction,                 !- Construction Name
  conditioned space,                      !- Zone Name
  conditioned space 1,                    !- Space Name
  Outdoors,                               !- Outside Boundary Condition
  ,                                       !- Outside Boundary Condition Object
  SunExposed,                             !- Sun Exposure
  WindExposed,                            !- Wind Exposure
  ,                                       !- View Factor to Ground
  ,                                       !- Number of Vertices
  -34.2322195106506, -2.55182957936303, 1.37001504, !- X,Y,Z Vertex 1 {m}
  -34.2322195106506, -2.55182957936303, 1.67481504, !- X,Y,Z Vertex 2 {m}
  -36.7840490900136, -2.8421709430404e-14, 1.67481504, !- X,Y,Z Vertex 3 {m}
  -36.7840490900136, -2.8421709430404e-14, 1.37001504; !- X,Y,Z Vertex 4 {m}

BuildingSurface:Detailed,
  RimJoist1:315,                          !- Name
  Wall,                                   !- Surface Type
  RimJoist1 construction,                 !- Construction Name
  conditioned space,                      !- Zone Name
  conditioned space 1,                    !- Space Name
  Outdoors,                               !- Outside Boundary Condition
  ,                                       !- Outside Boundary Condition Object
  SunExposed,                             !- Sun Exposure
  WindExposed,                            !- Wind Exposure
  ,                                       !- View Factor to Ground
  ,                                       !- Number of Vertices
  -2.55182957936303, 34.2322195106506, 1.37001504, !- X,Y,Z Vertex 1 {m}
  -2.55182957936303, 34.2322195106506, 1.67481504, !- X,Y,Z Vertex 2 {m}
  -2.8421709430404e-14, 36.7840490900136, 1.67481504, !- X,Y,Z Vertex 3 {m}
  -2.8421709430404e-14, 36.7840490900136, 1.37001504; !- X,Y,Z Vertex 4 {m}

BuildingSurface:Detailed,
  RimJoist1:45,                           !- Name
  Wall,                                   !- Surface Type
  RimJoist1 construction,                 !- Construction Name
  conditioned space,                      !- Zone Name
  conditioned space 1,                    !- Space Name
  Outdoors,                               !- Outside Boundary Condition
  ,                                       !- Outside Boundary Condition Object
  SunExposed,                             !- Sun Exposure
  WindExposed,                            !- Wind Exposure
  ,                                       !- View Factor to Ground
  ,                                       !- Number of Vertices
  18.111574958392, 18.6724741316216, 1.37001504, !- X,Y,Z Vertex 1 {m}
  18.111574958392, 18.6724741316216, 1.67481504, !- X,Y,Z Vertex 2 {m}
  20.663404537755, 16.1206445522586, 1.67481504, !- X,Y,Z Vertex 3 {m}