
Version,
  24.2;                                   !- Version Identifier

Timestep,
  1;                                      !- Number of Timesteps per Hour

Building,
  Building 1,                             !- Name
  ,                                       !- North Axis {deg}
  Suburbs,                                !- Terrain
  ,                                       !- Loads Convergence Tolerance Value {W}
  ,                                       !- Temperature Convergence Tolerance Value {deltaC}
  ,                                       !- Solar Distribution
  ,                                       !- Maximum Number of Warmup Days
  ;                                       !- Minimum Number of Warmup Days

Zone,
  attic - vented,                         !- Name
  ,                                       !- Direction of Relative North {deg}
  0,                                      !- X Origin {m}
  0,                                      !- Y Origin {m}
  0,                                      !- Z Origin {m}
  ,                                       !- Type
  1,                                      !- Multiplier
  ,                                       !- Ceiling Height {m}
  43.7013325698501,                       !- Volume {m3}
  ,                                       !- Floor Area {m2}
  ,                                       !- Zone Inside Convection Algorithm
  ,                                       !- Zone Outside Convection Algorithm
  Yes;                                    !- Part of Total Floor Area

Space,
  attic - vented 1,                       !- Name
  attic - vented,                         !- Zone Name
  ,                                       !- Ceiling Height {m}
  43.7013325698501,                       !- Volume {m3}
  ;                                       !- Floor Area {m2}

BuildingSurface:Detailed,
  Roof1:135,                              !- Name
  Roof,                                   !- Surface Type
  Roof1 construction,                     !- Construction Name
  attic - vented,                         !- Zone Name
  attic - vented 1,                       !- Space Name
  Outdoors,                               !- Outside Boundary Condition
  ,                                       !- Outside Boundary Condition Object
  SunExposed,                             !- Sun Exposure
  WindExposed,                            !- Wind Exposure
  ,                                       !- View Factor to Ground
  ,                                       !- Number of Vertices
  44.5324071835859, -78.7320928177583, 3.1383732, !- X,Y,Z Vertex 1 {m}
  38.0620596752354, -72.2617453094078, 6.18852426652542, !- X,Y,Z Vertex 2 {m}
  36.3569733936368, -73.9668315910064, 6.18852426652542, !- X,Y,Z Vertex 3 {m}
  42.8273209019873, -80.4371790993569, 3.1383732; !- X,Y,Z Vertex 4 {m}

BuildingSurface:Detailed,
  Roof1:225,                              !- Name
  Roof,                                   !- Surface Type
  Roof1 construction,                     !- Construction Name
  attic - vented,                         !- Zone Name
  attic - vented 1,                       !- Space Name
  Outdoors,                               !- Outside Boundary Condition
  ,                                       !- Outside Boundary Condition Object
  SunExposed,                             !- Sun Exposure
  WindExposed,                            !- Wind Exposure
  ,                                       !- View Factor to Ground
  ,                                       !- Number of Vertices
  -78.7320928177583, -44.5324071835859, 3.1383732, !- X,Y,Z Vertex 1 {m}
  -72.2617453094078, -38.0620596752354, 6.18852426652542, !- X,Y,Z Vertex 2 {m}
  -73.9668315910064, -36.3569733936368, 6.18852426652542, !- X,Y,Z Vertex 3 {m}
  -80.4371790993569, -42.8273209019873, 3.1383732; !- X,Y,Z Vertex 4 {m}

BuildingSurface:Detailed,
  Roof1:315,                              !- Name
  Roof,                                   !- Surface Type
  Roof1 construction,                     !- Construction Name
  attic - vented,                         !- Zone Name
  attic - vented 1,                       !- Space Name
  Outdoors,                               !- Outside Boundary Condition
  ,                                       !- Outside Boundary Condition Object
  SunExposed,                             !- Sun Exposure
  WindExposed,                            !- Wind Exposure
  ,                                       !- View Factor to Ground
  ,                                       !- Number of Vertices
  -44.5324071835859, 78.7320928177583, 3.1383732, !- X,Y,Z Vertex 1 {m}
  -38.0620596752354, 72.2617453094078, 6.18852426652542, !- X,Y,Z Vertex 2 {m}
  -36.3569733936368, 73.9668315910063, 6.18852426652542, !- X,Y,Z Vertex 3 {m}
  -42.8273209019873, 80.4371790993568, 3.1383732; !- X,Y,Z Vertex 4 {m}

BuildingSurface:Detailed,
  Roof1:45,                               !- Name
  Roof,                                   !- Surface Type
  Roof1 construction,                     !- Construction Name
  attic - vented,                         !- Zone Name
  attic - vented 1,                       !- Space Name
  Outdoors,                               !- Outside Boundary Condition
  ,                                       !- Outside Boundary Condition Object
  SunExposed,                             !- Sun Exposure
  WindExposed,                            !- Wind Exposure
  ,                                       !- View Factor to Ground
  ,                                       !- Number of Vertices
  52.2113202570259, 71.0531797443183, 3.1383732, !- X,Y,Z Vertex 1 {m}
  45.7409727486754, 64.5828322359678, 6.18852426652542, !- X,Y,Z Vertex 2 {m}
  47.446059030274, 62.8777459543692, 6.18852426652542, !- X,Y,Z Vertex 3 {m}
  53.9164065386245, 69.3480934627197, 3.1383732; !- X,Y,Z Vertex 4 {m}

BuildingSurface:Detailed,
  Surface 1 Reversed,                     !- Name
  Floor,                                  !- Surface Type
  Floor2 construction Reversed,           !- Construction Name
  attic - vented,                         !- Zone Name
  attic - vented 1,                       !- Space Name
  Surface,                                !- Outside Boundary Condition
  Floor2,                                 !- Outside Boundary Condition Object
  NoSun,                                  !- Sun Exposure
  NoWind,                                 !- Wind Exposure
  ,                                       !- View Factor to Ground
  ,                                       !- Number of Vertices
  -6.64304170502158, -4.44089209850063e-16, 3.1383732, !- X,Y,Z Vertex 1 {m}
  -4.44089209850063e-16, 6.64304170502158, 3.1383732, !- X,Y,Z Vertex 2 {m}
  6.64304170502158, 4.44089209850063e-16, 3.1383732, !- X,Y,Z Vertex 3 {m}
  4.44089209850063e-16, -6.64304170502158, 3.1383732; !- X,Y,Z Vertex 4 {m}

BuildingSurface:Detailed,
  Wall2:135,                              !- Name
  Wall,                                   !- Surface Type
  Wall2 construction,                     !- Construction Name
  attic - vented,                         !- Zone Name
  attic - vented 1,                       !- Space Name
  Outdoors,                               !- Outside Boundary Condition
  ,                                       !- Outside Boundary Condition Object
  SunExposed,                             !- Sun Exposure
  WindExposed,                            !- Wind Exposure
  ,                                       !- View Factor to Ground
  ,                                       !- Number of Vertices
  53.9319646728438, -69.3325353285003, 0.6999732, !- X,Y,Z Vertex 1 {m}
  53.9319646728438, -69.3325353285003, 3.1383732, !- X,Y,Z Vertex 2 {m}
  53.1922267069223, -70.0722732944219, 3.1383732, !- X,Y,Z Vertex 3 {m}
  53.1922267069223, -70.0722732944219, 0.6999732; !- X,Y,Z Vertex 4 {m}

BuildingSurface:Detailed,
  Wall2:225,                              !- Name
  Wall,                                   !- Surface Type
  Wall2 construction,                     !- Construction Name
  attic - vented,                         !- Zone Name
  attic - vented 1,                       !- Space Name
  Outdoors,                               !- Outside Boundary Condition
  ,                                       !- Outside Boundary Condition Object
  SunExposed,                             !- Sun Exposure
  WindExposed,                            !- Wind Exposure
  ,                                       !- View Factor to Ground
  ,                                       !- Number of Vertices
  -64.0993824370525, -59.1651175642917, 0.6999732, !- X,Y,Z Vertex 1 {m}
  -64.0993824370525, -59.1651175642917, 3.1383732, !- X,Y,Z Vertex 2 {m}
  -64.8391204029741, -58.4253795983701, 3.1383732, !- X,Y,Z Vertex 3 {m}
  -64.8391204029741, -58.4253795983701, 0.6999732; !- X,Y,Z Vertex 4 {m}

BuildingSurface:Detailed,
  Wall2:315,                              !- Name
  Wall,                                   !- Surface Type
  Wall2 construction,                     !- Construction Name
  attic - vented,                         !- Zone Name
  attic - vented 1,                       !- Space Name
  Outdoors,                               !- Outside Boundary Condition
  ,                                       !- Outside Boundary Condition Object
  SunExposed,                             !- Sun Exposure
  WindExposed,                            !- Wind Exposure
  ,                                       !- View Factor to Ground
  ,                                       !- Number of Vertices
  -53.9319646728439, 69.3325353285003, 0.6999732, !- X,Y,Z Vertex 1 {m}
  -53.9319646728439, 69.3325353285003, 3.1383732, !- X,Y,Z Vertex 2 {m}
  -53.1922267069223, 70.0722732944218, 3.1383732, !- X,Y,Z Vertex 3 {m}
  -53.1922267069223, 70.0722732944218, 0.6999732; !- X,Y,Z Vertex 4 {m}

BuildingSurface:Detailed,
  Wall2:45,                               !- Name
  Wall,                                   !- Surface Type
  Wall2 construction,                     !- Construction Name
  attic - vented,                         !- Zone Name
  attic - vented 1,                       !- Space Name
  Outdoors,                               !- Outside Boundary Condition
  ,                                       !- Outside Boundary Condition Object
  SunExposed,                             !- Sun Exposure
  WindExposed,                            !- Wind Exposure
  ,                                       !- View Factor to Ground
  ,                                       !- Number of Vertices
  36.760259866593, 86.5042401347512, 0.6999732, !- X,Y,Z Vertex 1 {m}
  36.760259866593, 86.5042401347512, 3.1383732, !- X,Y,Z Vertex 2 {m}
  37.4999978325146, 85.7645021688296, 3.1383732, !- X,Y,Z Vertex 3 {m}
  37.4999978325146, 85.7645021688296, 0.6999732; !- X,Y,Z Vertex 4 {m}

ZoneInfiltration:EffectiveLeakageArea,
  infil attic - vented 1,                 !- Name
  attic - vented 1,                       !- Zone or Space Name
  Always On Discrete,                     !- Schedule Name
  3026.05735506213,                       !- Effective Air Leakage Area {cm2}
  0.000381664111324175,                   !- Stack Coefficient
  1.31995997341469e-05;                   !- Wind Coefficient

ZoneMixing,
  whole house fan mix,                    !- Name
  attic - vented,                         !- Zone or Space Name
  Always On Continuous,                   !- Schedule Name
  Flow/Zone,                              !- Design Flow Rate Calculation Method
  0,                                      !- Design Flow Rate {m3/s}
  ,                                       !- Flow Rate per Floor Area {m3/s-m2}
  ,                                       !- Flow Rate per Person {m3/s-person}
  ,                                       !- Air Changes per Hour {1/hr}
  conditioned space;                      !- Source Zone or Space Name

Schedule:Constant,
  Always On Continuous,                   !- Name
  Fractional 1,                           !- Schedule Type Limits Name
  1;                                      !- Hourly Value

Zone,
  conditioned space,                      !- Name
  ,                                       !- Direction of Relative North {deg}
  0,                                      !- X Origin {m}
  0,                                      !- Y Origin {m}
  0,                                      !- Z Origin {m}
  ,                                       !- Type
  1,                                      !- Multiplier
  ,                                       !- Ceiling Height {m}
  428.19999178411,                        !- Volume {m3}
  ,                                       !- Floor Area {m2}
  ,                                       !- Zone Inside Convection Algorithm
  ,                                       !- Zone Outside Convection Algorithm
  Yes;                                    !- Part of Total Floor Area

Space,
  conditioned space 1,                    !- Name
  conditioned space,                      !- Zone Name
  ,                                       !- Ceiling Height {m}
  428.19999178411,                        !- Volume {m3}
  ;                                       !- Floor Area {m2}

Shading:Zone:Detailed,
  Window1 overhangs,                      !- Name
  surface Window12,                       !- Base Surface Name
  ,                                       !- Transmittance Schedule Name
  ,                                       !- Number of Vertices
  -76.9075084779946, -46.3569915233495, 2.4007572, !- X,Y,Z Vertex 1 {m}
  -78.9372737096125, -44.3272262917317, 2.4007572, !- X,Y,Z Vertex 2 {m}
  -79.3683260034238, -44.758278585543, 2.4007572, !- X,Y,Z Vertex 3 {m}
  -77.338560771806, -46.7880438171608, 2.4007572; !- X,Y,Z Vertex 4 {m}

Shading:Zone:Detailed,
  Window10 overhangs,                     !- Name
  Wall1:315,                              !- Base Surface Name
  ,                                       !- Transmittance Schedule Name
  ,                                       !- Number of Vertices
  -48.7643632522031, 74.500136749141, 5.4030372, !- X,Y,Z Vertex 1 {m}
  -42.1698095612061, 81.0946904401381, 5.4030372, !- X,Y,Z Vertex 2 {m}
  -42.6008618550174, 81.5257427339494, 5.4030372, !- X,Y,Z Vertex 3 {m}
  -49.1954155460145, 74.9311890429523, 5.4030372; !- X,Y,Z Vertex 4 {m}

Shading:Zone:Detailed,
  Window11 overhangs,                     !- Name
  Wall1:135,                              !- Base Surface Name
  ,                                       !- Transmittance Schedule Name
  ,                                       !- Number of Vertices
  48.7643632522031, -74.500136749141, 5.4030372, !- X,Y,Z Vertex 1 {m}
  42.169809561206, -81.0946904401381, 5.4030372, !- X,Y,Z Vertex 2 {m}
  42.6008618550173, -81.5257427339494, 5.4030372, !- X,Y,Z Vertex 3 {m}
  49.1954155460144, -74.9311890429523, 5.4030372; !- X,Y,Z Vertex 4 {m}

Shading:Zone:Detailed,
  Window12 overhangs,                     !- Name
  surface Window6,                        !- Base Surface Name
  ,                                       !- Transmittance Schedule Name
  ,                                       !- Number of Vertices
  -74.3997615846227, -48.8647384167215, 4.1838372, !- X,Y,Z Vertex 1 {m}
  -79.2701061003745, -43.9943939009697, 4.1838372, !- X,Y,Z Vertex 2 {m}
  -79.7011583941858, -44.425446194781, 4.1838372, !- X,Y,Z Vertex 3 {m}
  -74.830813878434, -49.2957907105328, 4.1838372; !- X,Y,Z Vertex 4 {m}

Shading:Zone:Detailed,
  Window2 overhangs,                      !- Name
  surface Window2,                        !- Base Surface Name
  ,                                       !- Transmittance Schedule Name
  ,                                       !- Number of Vertices
  47.3500680910862, 75.9144319102579, 1.8612612, !- X,Y,Z Vertex 1 {m}
  50.0359046697762, 73.228595331568, 1.8612612, !- X,Y,Z Vertex 2 {m}
  50.4669569635875, 73.6596476253793, 1.8612612, !- X,Y,Z Vertex 3 {m}
  47.7811203848975, 76.3454842040693, 1.8612612; !- X,Y,Z Vertex 4 {m}

Shading:Zone:Detailed,
  Window4 overhangs,                      !- Name
  surface Window4,                        !- Base Surface Name
  ,                                       !- Transmittance Schedule Name
  ,                                       !- Number of Vertices
  44.7361669814144, 78.5283330199297, 2.2178772, !- X,Y,Z Vertex 1 {m}
  47.1155756432529, 76.1489243580912, 2.2178772, !- X,Y,Z Vertex 2 {m}
  47.9776802308756, 77.0110289457139, 2.2178772, !- X,Y,Z Vertex 3 {m}
  45.5982715690371, 79.3904376075524, 2.2178772; !- X,Y,Z Vertex 4 {m}

Shading:Zone:Detailed,
  Window5 overhangs,                      !- Name
  surface Window5,                        !- Base Surface Name
  ,                                       !- Transmittance Schedule Name
  ,                                       !- Number of Vertices
  -35.3721724305648, -87.1611638305196, 1.9374612, !- X,Y,Z Vertex 1 {m}
  -36.4020401708245, -87.1611638305196, 1.9374612, !- X,Y,Z Vertex 2 {m}
  -36.4020401708245, -87.7707638305196, 1.9374612, !- X,Y,Z Vertex 3 {m}
  -35.3721724305648, -87.7707638305196, 1.9374612; !- X,Y,Z Vertex 4 {m}

Shading:Zone:Detailed,
  Window6 overhangs,                      !- Name
  surface Window6,                        !- Base Surface Name
  ,                                       !- Transmittance Schedule Name
  ,                                       !- Number of Vertices
  -75.059954560126, -48.2045454412182, 1.9374612, !- X,Y,Z Vertex 1 {m}
  -76.1114702433474, -47.1530297579968, 1.9374612, !- X,Y,Z Vertex 2 {m}
  -76.5425225371587, -47.5840820518081, 1.9374612, !- X,Y,Z Vertex 3 {m}
  -75.4910068539373, -48.6355977350295, 1.9374612; !- X,Y,Z Vertex 4 {m}

Shading:Zone:Detailed,
  Window7 overhangs,                      !- Name
  surface Window7,                        !- Base Surface Name
  ,                                       !- Transmittance Schedule Name
  ,                                       !- Number of Vertices
  -73.8466003793175, -49.4178996220267, 1.6326612, !- X,Y,Z Vertex 1 {m}
  -74.8254621122927, -48.4390378890515, 1.6326612, !- X,Y,Z Vertex 2 {m}
  -75.0366777362602, -48.650253513019, 1.6326612, !- X,Y,Z Vertex 3 {m}
  -74.057816003285, -49.6291152459942, 1.6326612; !- X,Y,Z Vertex 4 {m}

Shading:Zone:Detailed,
  Window8 overhangs,                      !- Name
  surface Window8,                        !- Base Surface Name
  ,                                       !- Transmittance Schedule Name
  ,                                       !- Number of Vertices
  -72.075289551874, -51.1892104494701, 1.7850612, !- X,Y,Z Vertex 1 {m}
  -73.6121079314841, -49.65239206986, 1.7850612, !- X,Y,Z Vertex 2 {m}
  -73.8233235554517, -49.8636076938276, 1.7850612, !- X,Y,Z Vertex 3 {m}
  -72.2865051758416, -51.4004260734377, 1.7850612; !- X,Y,Z Vertex 4 {m}

Shading:Zone:Detailed,
  Window9 overhangs,                      !- Name
  surface Window9,                        !- Base Surface Name
  ,                                       !- Transmittance Schedule Name
  ,                                       !- Number of Vertices
  -87.1611638305196, 35.3721724305647, 1.9374612, !- X,Y,Z Vertex 1 {m}
  -87.1611638305196, 36.4020401708245, 1.9374612, !- X,Y,Z Vertex 2 {m}
  -87.7707638305196, 36.4020401708245, 1.9374612, !- X,Y,Z Vertex 3 {m}
  -87.7707638305196, 35.3721724305647, 1.9374612; !- X,Y,Z Vertex 4 {m}

BuildingSurface:Detailed,
  Floor1,                                 !- Name
  Floor,                                  !- Surface Type
  Floor1 construction,                    !- Construction Name
  conditioned space,                      !- Zone Name
  conditioned space 1,                    !- Space Name
  Outdoors,                               !- Outside Boundary Condition
  ,                                       !- Outside Boundary Condition Object
  NoSun,                                  !- Sun Exposure
  WindExposed,                            !- Wind Exposure
  ,                                       !- View Factor to Ground
  ,                                       !- Number of Vertices
  -1.11345905573577, -1.11022302462516e-16, 0.6999732, !- X,Y,Z Vertex 1 {m}
  -1.11022302462516e-16, 1.11345905573577, 0.6999732, !- X,Y,Z Vertex 2 {m}
  1.11345905573577, 1.11022302462516e-16, 0.6999732, !- X,Y,Z Vertex 3 {m}
  1.11022302462516e-16, -1.11345905573577, 0.6999732; !- X,Y,Z Vertex 4 {m}

BuildingSurface:Detailed,
  Floor2,                                 !- Name
  Ceiling,                                !- Surface Type
  Floor2 construction,                    !- Construction Name
  conditioned space,                      !- Zone Name
  conditioned space 1,                    !- Space Name
  Surface,                                !- Outside Boundary Condition
  Surface 1 Reversed,                     !- Outside Boundary Condition Object
  NoSun,                                  !- Sun Exposure
  NoWind,                                 !- Wind Exposure
  ,                                       !- View Factor to Ground
  ,                                       !- Number of Vertices
  4.44089209850063e-16, -6.64304170502158, 3.1383732, !- X,Y,Z Vertex 1 {m}
  6.64304170502158, 4.44089209850063e-16, 3.1383732, !- X,Y,Z Vertex 2 {m}
  -4.44089209850063e-16, 6.64304170502158, 3.1383732, !- X,Y,Z Vertex 3 {m}
  -6.64304170502158, -4.44089209850063e-16, 3.1383732; !- X,Y,Z Vertex 4 {m}

BuildingSurface:Detailed,
  FoundationWall1,                        !- Name
  Wall,                                   !- Surface Type
  FoundationWall1 construction,           !- Construction Name
  conditioned space,                      !- Zone Name
  conditioned space 1,                    !- Space Name
  Foundation,                             !- Outside Boundary Condition
  Foundation Kiva 1,                      !- Outside Boundary Condition Object
  NoSun,                                  !- Sun Exposure
  NoWind,                                 !- Wind Exposure
  ,                                       !- View Factor to Ground
  ,                                       !- Number of Vertices
  61.2973149655557, 61.9671850357885, -1.74001176, !- X,Y,Z Vertex 1 {m}
  61.2973149655557, 61.9671850357885, 0.6999732, !- X,Y,Z Vertex 2 {m}
  84.5747789440233, 38.6897210573209, 0.6999732, !- X,Y,Z Vertex 3 {m}
  84.5747789440233, 38.6897210573209, 0.421088869319096, !- X,Y,Z Vertex 4 {m}
  87.1611638305197, 36.1033361708245, 0.421088869319096, !- X,Y,Z Vertex 5 {m}
  87.1611638305197, 36.1033361708245, -1.74001176; !- X,Y,Z Vertex 6 {m}

BuildingSurface:Detailed,
  inferred conditioned ceiling,           !- Name
  Ceiling,                                !- Surface Type
  AdiabaticFloorConstruction,             !- Construction Name
  conditioned space,                      !- Zone Name
  conditioned space 1,                    !- Space Name
  Adiabatic,                              !- Outside Boundary Condition
  ,                                       !- Outside Boundary Condition Object
  NoSun,                                  !- Sun Exposure
  NoWind,                                 !- Wind Exposure
  ,                                       !- View Factor to Ground
  ,                                       !- Number of Vertices
  4.44089209850063e-16, -6.64453513678722, 0.6999732, !- X,Y,Z Vertex 1 {m}
  6.64453513678722, 4.44089209850063e-16, 0.6999732, !- X,Y,Z Vertex 2 {m}
  -4.44089209850063e-16, 6.64453513678722, 0.6999732, !- X,Y,Z Vertex 3 {m}
  -6.64453513678722, -4.44089209850063e-16, 0.6999732; !- X,Y,Z Vertex 4 {m}

BuildingSurface:Detailed,
  inferred conditioned floor,             !- Name
  Floor,                                  !- Surface Type
  AdiabaticFloorConstruction,             !- Construction Name
  conditioned space,                      !- Zone Name
  conditioned space 1,                    !- Space Name
  Adiabatic,                              !- Outside Boundary Condition
  ,                                       !- Outside Boundary Condition Object
  NoSun,                                  !- Sun Exposure
  NoWind,                                 !- Wind Exposure
  ,                                       !- View Factor to Ground
  ,                                       !- Number of Vertices
  -6.64453513678722, -4.44089209850063e-16, 0.6999732, !- X,Y,Z Vertex 1 {m}
  -4.44089209850063e-16, 6.64453513678722, 0.6999732, !- X,Y,Z Vertex 2 {m}
  6.64453513678722, 4.44089209850063e-16, 0.6999732, !- X,Y,Z Vertex 3 {m}
  4.44089209850063e-16, -6.64453513678722, 0.6999732; !- X,Y,Z Vertex 4 {m}

BuildingSurface:Detailed,
  RimJoist1:135,                          !- Name
  Wall,                                   !- Surface Type
  RimJoist1 construction,                 !- Construction Name
  conditioned space,                      !- Zone Name
  conditioned space 1,                    !- Space Name
  Outdoors,                               !- Outside Boundary Condition
  ,                                       !- Outside Boundary Condition Object
  SunExposed,                             !- Sun Exposure
  WindExposed,                            !- Wind Exposure
  ,                                       !- View Factor to Ground
  ,                                       !- Number of Vertices
  42.1703972062188, -81.0941027951253, 0.6999732, !- X,Y,Z Vertex 1 {m}
  42.1703972062188, -81.0941027951253, 1.0047732, !- X,Y,Z Vertex 2 {m}
  36.1033361708245, -87.1611638305196, 1.0047732, !- X,Y,Z Vertex 3 {m}
  36.1033361708245, -87.1611638305196, 0.6999732; !- X,Y,Z Vertex 4 {m}

BuildingSurface:Detailed,
  RimJoist1:225,                          !- Name
  Wall,                                   !- Surface Type
  RimJoist1 construction,                 !- Construction Name
  conditioned space,                      !- Zone Name
  conditioned space 1,                    !- Space Name
  Outdoors,                               !- Outside Boundary Condition
  ,                                       !- Outside Boundary Condition Object
  SunExposed,                             !- Sun Exposure
  WindExposed,                            !- Wind Exposure
  ,                                       !- View Factor to Ground
  ,                                       !- Number of Vertices
  -81.0941027951253, -42.1703972062188, 0.6999732, !- X,Y,Z Vertex 1 {m}
  -81.0941027951253, -42.1703972062188, 1.0047732, !- X,Y,Z Vertex 2 {m}
  -87.1611638305196, -36.1033361708245, 1.0047732, !- X,Y,Z Vertex 3 {m}
  -87.1611638305196, -36.1033361708245, 0.6999732; !- X,Y,Z Vertex 4 {m}

BuildingSurface:Detailed,
  RimJoist1:315,                          !- Name
  Wall,                                   !- Surface Type
  RimJoist1 construction,                 !- Construction Name
  conditioned space,                      !- Zone Name
  conditioned space 1,                    !- Space Name
  Outdoors,                               !- Outside Boundary Condition
  ,                                       !- Outside Boundary Condition Object
  SunExposed,                             !- Sun Exposure
  WindExposed,                            !- Wind Exposure
  ,                                       !- View Factor to Ground
  ,                                       !- Number of Vertices
  -42.1703972062188, 81.0941027951253, 0.6999732, !- X,Y,Z Vertex 1 {m}
  -42.1703972062188, 81.0941027951253, 1.0047732, !- X,Y,Z Vertex 2 {m}
  -36.1033361708245, 87.1611638305196, 1.0047732, !- X,Y,Z Vertex 3 {m}
  -36.1033361708245, 87.1611638305196, 0.6999732; !- X,Y,Z Vertex 4 {m}

BuildingSurface:Detailed,
  RimJoist1:45,                           !- Name
  Wall,                                   !- Surface Type
  RimJoist1 construction,                 !- Construction Name
  conditioned space,                      !- Zone Name
  conditioned space 1,                    !- Space Name
  Outdoors,                               !- Outside Boundary Condition
  ,                                       !- Outside Boundary Condition Object
  SunExposed,                             !- Sun Exposure
  WindExposed,                            !- Wind Exposure
  ,                                       !- View Factor to Ground
  ,                                       !- Number of Vertices
  54.5733302343929, 68.6911697669512, 0.6999732, !- X,Y,Z Vertex 1 {m}
  54.5733302343929, 68.6911697669512, 1.0047732, !- X,Y,Z Vertex 2 {m}
  60.6403912697872, 62.6241087315569, 1.0047732, !- X,Y,Z Vertex 3 {m}
  60.6403912697872, 62.6241087315569, 0.6999732; !- X,Y,Z Vertex 4 {m}

BuildingSurface:Detailed,
  Slab1,                                  !- Name
  Floor,                                  !- Surface Type
  Slab1 construction,                     !- Construction Name
  conditioned space,                      !- Zone Name
  conditioned space 1,                    !- Space Name
  Foundation,                             !- Outside Boundary Condition
  Foundation Kiva 1,                      !- Outside Boundary Condition Object
  NoSun,                                  !- Sun Exposure
  NoWind,                                 !- Wind Exposure
  ,                                       !- View Factor to Ground
  ,                                       !- Number of Vertices
  -6.46596221624099, 1.7388686488128, -1.74001176, !- X,Y,Z Vertex 1 {m}
  -1.7388686488128, 6.46596221624099, -1.74001176, !- X,Y,Z Vertex 2 {m}
  6.46596221624099, -1.7388686488128, -1.74001176, !- X,Y,Z Vertex 3 {m}
  1.7388686488128, -6.46596221624099, -1.74001176; !- X,Y,Z Vertex 4 {m}

SurfaceProperty:ExposedFoundationPerimeter,
  Slab1,                                  !- Surface Name
  TotalExposedPerimeter,                  !- Exposed Perimeter Calculation Method
  36.57700584,                            !- Total Exposed Perimeter {m}
  ;                                       !- Exposed Perimeter Fraction {dimensionless}

BuildingSurface:Detailed,