
Version,
  24.2;                                   !- Version Identifier

Timestep,
  1;                                      !- Number of Timesteps per Hour

Building,
  Building 1,                             !- Name
  ,                                       !- North Axis {deg}
  Suburbs,                                !- Terrain
  ,                                       !- Loads Convergence Tolerance Value {W}
  ,                                       !- Temperature Convergence Tolerance Value {deltaC}
  ,                                       !- Solar Distribution
  ,                                       !- Maximum Number of Warmup Days
  ;                                       !- Minimum Number of Warmup Days

Zone,
  attic - vented,                         !- Name
  ,                                       !- Direction of Relative North {deg}
  0,                                      !- X Origin {m}
  0,                                      !- Y Origin {m}
  0,                                      !- Z Origin {m}
  ,                                       !- Type
  1,                                      !- Multiplier
  ,                                       !- Ceiling Height {m}
  118.345289476589,                       !- Volume {m3}
  ,                                       !- Floor Area {m2}
  ,                                       !- Zone Inside Convection Algorithm
  ,                                       !- Zone Outside Convection Algorithm
  Yes;                                    !- Part of Total Floor Area

Space,
  attic - vented 1,                       !- Name
  attic - vented,                         !- Zone Name
  ,                                       !- Ceiling Height {m}
  118.345289476589,                       !- Volume {m3}
  ;                                       !- Floor Area {m2}

Shading:Zone:Detailed,
  Window21 overhangs,                     !- Name
  surface Window21,                       !- Base Surface Name
  ,                                       !- Transmittance Schedule Name
  ,                                       !- Number of Vertices
  -58.1487738161479, -8.89336621557764, 2.14463376, !- X,Y,Z Vertex 1 {m}
  -59.1940756286404, -7.84806440308523, 2.14463376, !- X,Y,Z Vertex 2 {m}
  -59.5195201104679, -8.17350888491274, 2.14463376, !- X,Y,Z Vertex 3 {m}
  -58.4742182979755, -9.21881069740523, 2.14463376; !- X,Y,Z Vertex 4 {m}

BuildingSurface:Detailed,
  Roof1:135,                              !- Name
  Roof,                                   !- Surface Type
  Roof1 construction,                     !- Construction Name
  attic - vented,                         !- Zone Name
  attic - vented 1,                       !- Space Name
  Outdoors,                               !- Outside Boundary Condition
  ,                                       !- Outside Boundary Condition Object
  SunExposed,                             !- Sun Exposure
  WindExposed,                            !- Wind Exposure
  ,                                       !- View Factor to Ground
  ,                                       !- Number of Vertices
  2.18062803062609, -64.8615120010994, 5.64678576, !- X,Y,Z Vertex 1 {m}
  -5.62102398556821, -57.0598599849051, 11.1633868051087, !- X,Y,Z Vertex 2 {m}
  -7.80165201619431, -59.2404880155312, 11.1633868051087, !- X,Y,Z Vertex 3 {m}
  -1.4210854715202e-14, -67.0421400317255, 5.64678576; !- X,Y,Z Vertex 4 {m}

BuildingSurface:Detailed,
  Roof1:225,                              !- Name
  Roof,                                   !- Surface Type
  Roof1 construction,                     !- Construction Name
  attic - vented,                         !- Zone Name
  attic - vented 1,                       !- Space Name
  Outdoors,                               !- Outside Boundary Condition
  ,                                       !- Outside Boundary Condition Object
  SunExposed,                             !- Sun Exposure
  WindExposed,                            !- Wind Exposure
  ,                                       !- View Factor to Ground
  ,                                       !- Number of Vertices
  -64.8615120010994, -2.1806280306261, 5.64678576, !- X,Y,Z Vertex 1 {m}
  -57.0598599849051, 5.62102398556821, 11.1633868051087, !- X,Y,Z Vertex 2 {m}
  -59.2404880155312, 7.80165201619431, 11.1633868051087, !- X,Y,Z Vertex 3 {m}
  -67.0421400317255, 7.105427357601e-15, 5.64678576; !- X,Y,Z Vertex 4 {m}

BuildingSurface:Detailed,
  Roof1:315,                              !- Name
  Roof,                                   !- Surface Type
  Roof1 construction,                     !- Construction Name
  attic - vented,                         !- Zone Name
  attic - vented 1,                       !- Space Name
  Outdoors,                               !- Outside Boundary Condition
  ,                                       !- Outside Boundary Condition Object
  SunExposed,                             !- Sun Exposure
  WindExposed,                            !- Wind Exposure
  ,                                       !- View Factor to Ground
  ,                                       !- Number of Vertices
  -2.1806280306261, 64.8615120010994, 5.64678576, !- X,Y,Z Vertex 1 {m}
  5.62102398556821, 57.0598599849051, 11.1633868051087, !- X,Y,Z Vertex 2 {m}
  7.80165201619431, 59.2404880155312, 11.1633868051087, !- X,Y,Z Vertex 3 {m}
  7.105427357601e-15, 67.0421400317255, 5.64678576; !- X,Y,Z Vertex 4 {m}

BuildingSurface:Detailed,
  Roof1:45,                               !- Name
  Roof,                                   !- Surface Type
  Roof1 construction,                     !- Construction Name
  attic - vented,                         !- Zone Name
  attic - vented 1,                       !- Space Name
  Outdoors,                               !- Outside Boundary Condition
  ,                                       !- Outside Boundary Condition Object
  SunExposed,                             !- Sun Exposure
  WindExposed,                            !- Wind Exposure
  ,                                       !- View Factor to Ground
  ,                                       !- Number of Vertices
  32.7913722098401, 34.2507678218854, 5.64678576, !- X,Y,Z Vertex 1 {m}
  24.9897201936458, 26.4491158056911, 11.1633868051087, !- X,Y,Z Vertex 2 {m}
  27.1703482242719, 24.268487775065, 11.1633868051087, !- X,Y,Z Vertex 3 {m}
  34.9720002404662, 32.0701397912593, 5.64678576; !- X,Y,Z Vertex 4 {m}

BuildingSurface:Detailed,
  Surface 1 Reversed,                     !- Name
  Floor,                                  !- Surface Type
  Floor2 construction Reversed,           !- Construction Name
  attic - vented,                         !- Zone Name
  attic - vented 1,                       !- Space Name
  Surface,                                !- Outside Boundary Condition
  Floor2,                                 !- Outside Boundary Condition Object
  NoSun,                                  !- Sun Exposure
  NoWind,                                 !- Wind Exposure
  ,                                       !- View Factor to Ground
  ,                                       !- Number of Vertices
  -8.24924264928702, 0, 5.64678576,       !- X,Y,Z Vertex 1 {m}
  -1.77635683940025e-15, 8.24924264928702, 5.64678576, !- X,Y,Z Vertex 2 {m}
  8.24924264928702, 0, 5.64678576,        !- X,Y,Z Vertex 3 {m}
  1.77635683940025e-15, -8.24924264928702, 5.64678576; !- X,Y,Z Vertex 4 {m}

BuildingSurface:Detailed,
  surface Window21,                       !- Name
  Wall,                                   !- Surface Type
  AdiabaticWallConstruction,              !- Construction Name
  attic - vented,                         !- Zone Name
  attic - vented 1,                       !- Space Name
  Outdoors,                               !- Outside Boundary Condition
  ,                                       !- Outside Boundary Condition Object
  SunExposed,                             !- Sun Exposure
  WindExposed,                            !- Wind Exposure
  ,                                       !- View Factor to Ground
  ,                                       !- Number of Vertices
  -58.4730202769127, -8.56911975481283, 0.768291502364995, !- X,Y,Z Vertex 1 {m}
  -58.4730202769127, -8.56911975481283, 1.68608001763501, !- X,Y,Z Vertex 2 {m}
  -58.8698291678756, -8.17231086384993, 1.68608001763501, !- X,Y,Z Vertex 3 {m}
  -58.8698291678756, -8.17231086384993, 0.768291502364995; !- X,Y,Z Vertex 4 {m}

FenestrationSurface:Detailed,
  Window21,                               !- Name
  Window,                                 !- Surface Type
  WindowConstruction 16,                  !- Construction Name
  surface Window21,                       !- Building Surface Name
  ,                                       !- Outside Boundary Condition Object
  ,                                       !- View Factor to Ground
  ,                                       !- Frame and Divider Name
  ,                                       !- Multiplier
  ,                                       !- Number of Vertices
  -58.4742182979755, -8.56792173375013, 0.76998576, !- X,Y,Z Vertex 1 {m}
  -58.4742182979755, -8.56792173375013, 1.68438576, !- X,Y,Z Vertex 2 {m}
  -58.8686311468129, -8.17350888491274, 1.68438576, !- X,Y,Z Vertex 3 {m}
  -58.8686311468129, -8.17350888491274, 0.76998576; !- X,Y,Z Vertex 4 {m}

BuildingSurface:Detailed,
  Wall4:135,                              !- Name
  Wall,                                   !- Surface Type
  Wall4 construction,                     !- Construction Name
  attic - vented,                         !- Zone Name
  attic - vented 1,                       !- Space Name
  Outdoors,                               !- Outside Boundary Condition
  ,                                       !- Outside Boundary Condition Object
  SunExposed,                             !- Sun Exposure
  WindExposed,                            !- Wind Exposure
  ,                                       !- View Factor to Ground
  ,                                       !- Number of Vertices
  21.6735942914975, -45.368545740228, 0.76998576, !- X,Y,Z Vertex 1 {m}
  21.6735942914975, -45.368545740228, 5.64678576, !- X,Y,Z Vertex 2 {m}
  17.625777268445, -49.4163627632805, 5.64678576, !- X,Y,Z Vertex 3 {m}
  17.625777268445, -49.4163627632805, 0.76998576; !- X,Y,Z Vertex 4 {m}

BuildingSurface:Detailed,
  Wall4:225,                              !- Name
  Wall,                                   !- Surface Type
  Wall4 construction,                     !- Construction Name
  attic - vented,                         !- Zone Name
  attic - vented 1,                       !- Space Name
  Outdoors,                               !- Outside Boundary Condition
  ,                                       !- Outside Boundary Condition Object
  SunExposed,                             !- Sun Exposure
  WindExposed,                            !- Wind Exposure
  ,                                       !- View Factor to Ground
  ,                                       !- Number of Vertices
  -35.7643087683901, -31.2778312633355, 0.76998576, !- X,Y,Z Vertex 1 {m}
  -35.7643087683901, -31.2778312633355, 5.64678576, !- X,Y,Z Vertex 2 {m}
  -39.8121257914426, -27.2300142402829, 5.64678576, !- X,Y,Z Vertex 3 {m}
  -39.8121257914426, -27.2300142402829, 0.76998576; !- X,Y,Z Vertex 4 {m}

BuildingSurface:Detailed,
  Wall4:315,                              !- Name
  Wall,                                   !- Surface Type
  Wall4 construction,                     !- Construction Name
  attic - vented,                         !- Zone Name
  attic - vented 1,                       !- Space Name
  Outdoors,                               !- Outside Boundary Condition
  ,                                       !- Outside Boundary Condition Object
  SunExposed,                             !- Sun Exposure
  WindExposed,                            !- Wind Exposure
  ,                                       !- View Factor to Ground
  ,                                       !- Number of Vertices
  -19.4002244939367, 47.6419155377889, 0.76998576, !- X,Y,Z Vertex 1 {m}
  -19.4002244939367, 47.6419155377889, 5.64678576, !- X,Y,Z Vertex 2 {m}
  -15.3524074708841, 51.6897325608414, 5.64678576, !- X,Y,Z Vertex 3 {m}
  -15.3524074708841, 51.6897325608414, 0.76998576; !- X,Y,Z Vertex 4 {m}

BuildingSurface:Detailed,
  Wall4:45,                               !- Name
  Wall,                                   !- Surface Type
  Wall4 construction,                     !- Construction Name
  attic - vented,                         !- Zone Name
  attic - vented 1,                       !- Space Name
  Outdoors,                               !- Outside Boundary Condition
  ,                                       !- Outside Boundary Condition Object
  SunExposed,                             !- Sun Exposure
  WindExposed,                            !- Wind Exposure
  ,                                       !- View Factor to Ground
  ,                                       !- Number of Vertices
  0.656923695768441, 66.3852163359571, 0.76998576, !- X,Y,Z Vertex 1 {m}
  0.656923695768441, 66.3852163359571, 5.64678576, !- X,Y,Z Vertex 2 {m}
  4.70474071882094, 62.3373993129046, 5.64678576, !- X,Y,Z Vertex 3 {m}
  4.70474071882094, 62.3373993129046, 0.76998576; !- X,Y,Z Vertex 4 {m}

ZoneInfiltration:EffectiveLeakageArea,
  infil attic - vented 1,                 !- Name
  attic - vented 1,                       !- Zone or Space Name
  Always On Discrete,                     !- Schedule Name
  4297.89500758837,                       !- Effective Air Leakage Area {cm2}
  0.000722856319556381,                   !- Stack Coefficient
  1.81654470713285e-05;                   !- Wind Coefficient

ZoneMixing,
  whole house fan mix,                    !- Name
  attic - vented,                         !- Zone or Space Name
  Always On Continuous,                   !- Schedule Name
  Flow/Zone,                              !- Design Flow Rate Calculation Method
  0,                                      !- Design Flow Rate {m3/s}
  ,                                       !- Flow Rate per Floor Area {m3/s-m2}
  ,                                       !- Flow Rate per Person {m3/s-person}
  ,                                       !- Air Changes per Hour {1/hr}
  conditioned space;                      !- Source Zone or Space Name

Schedule:Constant,
  Always On Continuous,                   !- Name
  Fractional 1,                           !- Schedule Type Limits Name
  1;                                      !- Hourly Value

Zone,
  conditioned space,                      !- Name
  ,                                       !- Direction of Relative North {deg}
  0,                                      !- X Origin {m}
  0,                                      !- Y Origin {m}
  0,                                      !- Z Origin {m}
  ,                                       !- Type
  1,                                      !- Multiplier
  ,                                       !- Ceiling Height {m}
  1025.60022116707,                       !- Volume {m3}
  ,                                       !- Floor Area {m2}
  ,                                       !- Zone Inside Convection Algorithm
  ,                                       !- Zone Outside Convection Algorithm
  Yes;                                    !- Part of Total Floor Area

Space,
  conditioned space 1,                    !- Name
  conditioned space,                      !- Zone Name
  ,                                       !- Ceiling Height {m}
  1025.60022116707,                       !- Volume {m3}
  ;                                       !- Floor Area {m2}

Shading:Zone:Detailed,
  Window1 overhangs,                      !- Name
  surface Window1,                        !- Base Surface Name
  ,                                       !- Transmittance Schedule Name
  ,                                       !- Number of Vertices
  -63.089926260107, -3.95221377161848, 2.90663376, !- X,Y,Z Vertex 1 {m}
  -64.5300327871585, -2.51210724456707, 2.90663376, !- X,Y,Z Vertex 2 {m}
  -64.855477268986, -2.83755172639458, 2.90663376, !- X,Y,Z Vertex 3 {m}
  -63.4153707419346, -4.27765825344597, 2.90663376; !- X,Y,Z Vertex 4 {m}

Shading:Zone:Detailed,
  Window10 overhangs,                     !- Name
  surface Window1,                        !- Base Surface Name
  ,                                       !- Transmittance Schedule Name
  ,                                       !- Number of Vertices
  -59.2001103607538, -7.84202967097185, 2.44943376, !- X,Y,Z Vertex 1 {m}
  -63.0838915279938, -3.95824850373186, 2.44943376, !- X,Y,Z Vertex 2 {m}
  -63.4093360098213, -4.28369298555936, 2.44943376, !- X,Y,Z Vertex 3 {m}
  -59.5255548425813, -8.16747415279936, 2.44943376; !- X,Y,Z Vertex 4 {m}

Shading:Zone:Detailed,
  Window13 overhangs,                     !- Name
  surface Window13,                       !- Base Surface Name
  ,                                       !- Transmittance Schedule Name
  ,                                       !- Number of Vertices
  25.5406299430443, 41.5015100886813, 2.14463376, !- X,Y,Z Vertex 1 {m}
  27.2691496412277, 39.7729903904979, 2.14463376, !- X,Y,Z Vertex 2 {m}
  27.5945941230552, 40.0984348723254, 2.14463376, !- X,Y,Z Vertex 3 {m}
  25.8660744248718, 41.8269545705088, 2.14463376; !- X,Y,Z Vertex 4 {m}

Shading:Zone:Detailed,
  Window14 overhangs,                     !- Name
  surface Window16,                       !- Base Surface Name
  ,                                       !- Transmittance Schedule Name
  ,                                       !- Number of Vertices
  23.5905493658419, 43.4515906658837, 2.14463376, !- X,Y,Z Vertex 1 {m}
  25.5345952109309, 41.5075448207947, 2.14463376, !- X,Y,Z Vertex 2 {m}
  25.8600396927584, 41.8329893026222, 2.14463376, !- X,Y,Z Vertex 3 {m}
  23.9159938476694, 43.7770351477112, 2.14463376; !- X,Y,Z Vertex 4 {m}

Shading:Zone:Detailed,
  Window16 overhangs,                     !- Name
  surface Window16,                       !- Base Surface Name
  ,                                       !- Transmittance Schedule Name
  ,                                       !- Number of Vertices
  21.8559949355451, 45.1861450961805, 2.75423376, !- X,Y,Z Vertex 1 {m}
  23.5845146337285, 43.4576253979971, 2.75423376, !- X,Y,Z Vertex 2 {m}
  23.909959115556, 43.7830698798246, 2.75423376, !- X,Y,Z Vertex 3 {m}
  22.1814394173726, 45.511589578008, 2.75423376; !- X,Y,Z Vertex 4 {m}

Shading:Zone:Detailed,
  Window17 overhangs,                     !- Name
  surface Window16,                       !- Base Surface Name
  ,                                       !- Transmittance Schedule Name
  ,                                       !- Number of Vertices
  20.1214405052484, 46.9206995264772, 2.44943376, !- X,Y,Z Vertex 1 {m}
  21.8499602034318, 45.1921798282938, 2.44943376, !- X,Y,Z Vertex 2 {m}
  22.1754046852593, 45.5176243101213, 2.44943376, !- X,Y,Z Vertex 3 {m}
  20.4468849870759, 47.2461440083047, 2.44943376; !- X,Y,Z Vertex 4 {m}

Shading:Zone:Detailed,
  Window18 overhangs,                     !- Name
  surface Window8,                        !- Base Surface Name
  ,                                       !- Transmittance Schedule Name
  ,                                       !- Number of Vertices
  4.88720538346742, -62.1549346482582, 1.83983376, !- X,Y,Z Vertex 1 {m}
  2.51210724456702, -64.5300327871586, 1.83983376, !- X,Y,Z Vertex 2 {m}
  2.83755172639452, -64.8554772689861, 1.83983376, !- X,Y,Z Vertex 3 {m}
  5.21264986529492, -62.4803791300857, 1.83983376; !- X,Y,Z Vertex 4 {m}

Shading:Zone:Detailed,
  Window20 overhangs,                     !- Name
  surface Window20,                       !- Base Surface Name
  ,                                       !- Transmittance Schedule Name
  ,                                       !- Number of Vertices
  -3.80957464893908, 63.2325653827864, 2.14463376, !- X,Y,Z Vertex 1 {m}
  -2.51210724456698, 64.5300327871585, 2.14463376, !- X,Y,Z Vertex 2 {m}
  -2.83755172639458, 64.8554772689861, 2.14463376, !- X,Y,Z Vertex 3 {m}
  -4.13501913076668, 63.558009864614, 2.14463376; !- X,Y,Z Vertex 4 {m}

Shading:Zone:Detailed,
  Window22 overhangs,                     !- Name
  surface Window22,                       !- Base Surface Name
  ,                                       !- Transmittance Schedule Name
  ,                                       !- Number of Vertices
  -55.3365886513229, -11.7055513804027, 2.44943376, !- X,Y,Z Vertex 1 {m}
  -58.1427390840346, -8.89940094769096, 2.44943376, !- X,Y,Z Vertex 2 {m}
  -58.4681835658622, -9.22484542951856, 2.44943376, !- X,Y,Z Vertex 3 {m}
  -55.6620331331505, -12.0309958622303, 2.44943376; !- X,Y,Z Vertex 4 {m}

Shading:Zone:Detailed,
  Window3 overhangs,                      !- Name
  surface Window6,                        !- Base Surface Name
  ,                                       !- Transmittance Schedule Name
  ,                                       !- Number of Vertices
  19.0701039606425, 47.972036071083, 2.14463376, !- X,Y,Z Vertex 1 {m}
  20.115405773135, 46.9267342585905, 2.14463376, !- X,Y,Z Vertex 2 {m}
  20.4408502549625, 47.2521787404181, 2.14463376, !- X,Y,Z Vertex 3 {m}
  19.3955484424701, 48.2974805529105, 2.14463376; !- X,Y,Z Vertex 4 {m}

Shading:Zone:Detailed,
  Window4 overhangs,                      !- Name
  surface Window22,                       !- Base Surface Name
  ,                                       !- Transmittance Schedule Name
  ,                                       !- Number of Vertices
  -54.1408495882903, -12.9012904434353, 2.14463376, !- X,Y,Z Vertex 1 {m}
  -55.3305539192095, -11.7115861125161, 2.14463376, !- X,Y,Z Vertex 2 {m}
  -55.655998401037, -12.0370305943436, 2.14463376, !- X,Y,Z Vertex 3 {m}
  -54.4662940701178, -13.2267349252628, 2.14463376; !- X,Y,Z Vertex 4 {m}

Shading:Zone:Detailed,
  Window5 overhangs,                      !- Name
  surface Window5,                        !- Base Surface Name
  ,                                       !- Transmittance Schedule Name
  ,                                       !- Number of Vertices
  -52.4062951579936, -14.6358448737321, 3.66863376, !- X,Y,Z Vertex 1 {m}
  -54.134814856177, -12.9073251755487, 3.66863376, !- X,Y,Z Vertex 2 {m}
  -54.4602593380045, -13.2327696573762, 3.66863376, !- X,Y,Z Vertex 3 {m}
  -52.7317396398211, -14.9612893555596, 3.66863376; !- X,Y,Z Vertex 4 {m}

Shading:Zone:Detailed,
  Window6 overhangs,                      !- Name
  surface Window7,                        !- Base Surface Name
  ,                                       !- Transmittance Schedule Name
  ,                                       !- Number of Vertices
  17.9821279710628, 49.0600120606628, 2.44943376, !- X,Y,Z Vertex 1 {m}
  19.0640692285292, 47.9780708031964, 2.44943376, !- X,Y,Z Vertex 2 {m}
  19.3895137103567, 48.3035152850239, 2.44943376, !- X,Y,Z Vertex 3 {m}
  18.3075724528903, 49.3854565424903, 2.44943376; !- X,Y,Z Vertex 4 {m}

Shading:Zone:Detailed,
  Window7 overhangs,                      !- Name
  surface Window7,                        !- Base Surface Name
  ,                                       !- Transmittance Schedule Name
  ,                                       !- Number of Vertices
  16.2475735407661, 50.7945664909595, 2.75423376, !- X,Y,Z Vertex 1 {m}
  17.9760932389495, 49.0660467927761, 2.75423376, !- X,Y,Z Vertex 2 {m}
  18.301537720777, 49.3914912746036, 2.75423376, !- X,Y,Z Vertex 3 {m}
  16.5730180225936, 51.120010972787, 2.75423376; !- X,Y,Z Vertex 4 {m}

Shading:Zone:Detailed,
  Window8 overhangs,                      !- Name
  surface Window8,                        !- Base Surface Name
  ,                                       !- Transmittance Schedule Name
  ,                                       !- Number of Vertices
  6.08294444649998, -60.9591955852256, 2.14463376, !- X,Y,Z Vertex 1 {m}
  4.89324011558078, -62.1488999161448, 2.14463376, !- X,Y,Z Vertex 2 {m}
  5.21868459740829, -62.4743443979723, 2.14463376, !- X,Y,Z Vertex 3 {m}
  6.40838892832749, -61.2846400670531, 2.14463376; !- X,Y,Z Vertex 4 {m}

Shading:Zone:Detailed,
  Window9 overhangs,                      !- Name
  surface Window5,                        !- Base Surface Name
  ,                                       !- Transmittance Schedule Name
  ,                                       !- Number of Vertices
  -51.3549586133877, -15.6871814183378, 3.05903376, !- X,Y,Z Vertex 1 {m}
  -52.4002604258802, -14.6418796058454, 3.05903376, !- X,Y,Z Vertex 2 {m}
  -52.7257049077077, -14.9673240876729, 3.05903376, !- X,Y,Z Vertex 3 {m}
  -51.6804030952153, -16.0126259001654, 3.05903376; !- X,Y,Z Vertex 4 {m}

BuildingSurface:Detailed,
  Floor1,                                 !- Name
  Floor,                                  !- Surface Type
  Floor1 construction,                    !- Construction Name
  conditioned space,                      !- Zone Name
  conditioned space 1,                    !- Space Name
  Outdoors,                               !- Outside Boundary Condition
  ,                                       !- Outside Boundary Condition Object
  NoSun,                                  !- Sun Exposure
  WindExposed,                            !- Wind Exposure
  ,                                       !- View Factor to Ground
  ,                                       !- Number of Vertices
  -3.92683671409953, -4.44089209850063e-16, 0.76998576, !- X,Y,Z Vertex 1 {m}
  0, 3.92683671409953, 0.76998576,        !- X,Y,Z Vertex 2 {m}
  3.92683671409953, 4.44089209850063e-16, 0.76998576, !- X,Y,Z Vertex 3 {m}
  0, -3.92683671409953, 0.76998576;       !- X,Y,Z Vertex 4 {m}

BuildingSurface:Detailed,
  Floor2,                                 !- Name
  Ceiling,                                !- Surface Type
  Floor2 construction,                    !- Construction Name
  conditioned space,                      !- Zone Name
  conditioned space 1,                    !- Space Name
  Surface,                                !- Outside Boundary Condition
  Surface 1 Reversed,                     !- Outside Boundary Condition Object
  NoSun,                                  !- Sun Exposure
  NoWind,                                 !- Wind Exposure
  ,                                       !- View Factor to Ground
  ,                                       !- Number of Vertices
  1.77635683940025e-15, -8.24924264928702, 5.64678576, !- X,Y,Z Vertex 1 {m}
  8.24924264928702, 0, 5.64678576,        !- X,Y,Z Vertex 2 {m}
  -1.77635683940025e-15, 8.24924264928702, 5.64678576, !- X,Y,Z Vertex 3 {m}
  -8.24924264928702, 0, 5.64678576;       !- X,Y,Z Vertex 4 {m}

BuildingSurface:Detailed,
  FoundationWall1,                        !- Name
  Wall,                                   !- Surface Type
  FoundationWall1 construction,           !- Construction Name
  conditioned space,                      !- Zone Name
  conditioned space 1,                    !- Space Name
  Foundation,                             !- Outside Boundary Condition
  Foundation Kiva 1,                      !- Outside Boundary Condition Object
  NoSun,                                  !- Sun Exposure
  NoWind,                                 !- Wind Exposure
  ,                                       !- View Factor to Ground
  ,                                       !- Number of Vertices
  35.6289239362347, 31.4132160954909, -1.52000712, !- X,Y,Z Vertex 1 {m}
  35.6289239362347, 31.4132160954909, 0.76998576, !- X,Y,Z Vertex 2 {m}
  63.9008184221765, 3.14132160954917, 0.76998576, !- X,Y,Z Vertex 3 {m}
  63.9008184221765, 3.14132160954917, -0.343596074261513, !- X,Y,Z Vertex 4 {m}
  67.0421400317255, 6.75015598972095e-14, -0.343596074261513, !- X,Y,Z Vertex 5 {m}
  67.0421400317255, 6.75015598972095e-14, -1.52000712; !- X,Y,Z Vertex 6 {m}

BuildingSurface:Detailed,
  inferred conditioned ceiling,           !- Name
  Ceiling,                                !- Surface Type
  AdiabaticFloorConstruction,             !- Construction Name
  conditioned space,                      !- Zone Name
  conditioned space 1,                    !- Space Name
  Adiabatic,                              !- Outside Boundary Condition
  ,                                       !- Outside Boundary Condition Object
  NoSun,                                  !- Sun Exposure
  NoWind,                                 !- Wind Exposure
  ,                                       !- View Factor to Ground
  ,                                       !- Number of Vertices
  0, -10.9886212606314, 3.20838576,       !- X,Y,Z Vertex 1 {m}
  10.9886212606314, 1.77635683940025e-15, 3.20838576, !- X,Y,Z Vertex 2 {m}
  0, 10.9886212606314, 3.20838576,        !- X,Y,Z Vertex 3 {m}
  -10.9886212606314, -1.77635683940025e-15, 3.20838576; !- X,Y,Z Vertex 4 {m}

BuildingSurface:Detailed,
  inferred conditioned floor,             !- Name
  Floor,                                  !- Surface Type
  AdiabaticFloorConstruction,             !- Construction Name
  conditioned space,                      !- Zone Name
  conditioned space 1,                    !- Space Name
  Adiabatic,                              !- Outside Boundary Condition
  ,                                       !- Outside Boundary Condition Object
  NoSun,                                  !- Sun Exposure
  NoWind,                                 !- Wind Exposure
  ,                                       !- View Factor to Ground
  ,                                       !- Number of Vertices
  -10.9886212606314, -1.77635683940025e-15, 3.20838576, !- X,Y,Z Vertex 1 {m}
  0, 10.9886212606314, 3.20838576,        !- X,Y,Z Vertex 2 {m}
  10.9886212606314, 1.77635683940025e-15, 3.20838576, !- X,Y,Z Vertex 3 {m}
  0, -10.9886212606314, 3.20838576;       !- X,Y,Z Vertex 4 {m}

BuildingSurface:Detailed,